
 ===================================================
  XFOIL Version 6.99
  Copyright (C) 2000   Mark Drela, Harold Youngren

  This software comes with ABSOLUTELY NO WARRANTY,
    subject to the GNU General Public License.

  Caveat computor
 ===================================================

 File  xfoil.def  not found

   QUIT    Exit program

  .OPER    Direct operating point(s)
  .MDES    Complex mapping design routine
  .QDES    Surface speed design routine
  .GDES    Geometry design routine

   SAVE f  Write airfoil to labeled coordinate file
   PSAV f  Write airfoil to plain coordinate file
   ISAV f  Write airfoil to ISES coordinate file
   MSAV f  Write airfoil to MSES coordinate file
   REVE    Reverse written-airfoil node ordering

   LOAD f  Read buffer airfoil from coordinate file
   NACA i  Set NACA 4,5-digit airfoil and buffer airfoil
   INTE    Set buffer airfoil by interpolating two airfoils
   NORM    Buffer airfoil normalization toggle
   XYCM rr Change CM reference location, currently  0.25000 0.00000

   BEND    Display structural properties of current airfoil

   PCOP    Set current-airfoil panel nodes directly from buffer airfoil points
   PANE    Set current-airfoil panel nodes ( 160 ) based on curvature
  .PPAR    Show/change paneling

  .PLOP    Plotting options

   WDEF f  Write  current-settings file
   RDEF f  Reread current-settings file
   NAME s  Specify new airfoil name
   NINC    Increment name version number

   Z       Zoom    | (available in all menus)
   U       Unzoom  | 

 XFOIL   c>   Max thickness =     0.120035  at x =   0.300
 Max camber    =     0.040000  at x =   0.402

 Buffer airfoil set using 331 points

 Blunt trailing edge.  Gap =  0.00252

 Paneling parameters used...
   Number of panel nodes       160
   Panel bunching parameter    1.000
   TE/LE panel density ratio   0.150
   Refined-area/LE panel density ratio    0.200
   Top    side refined area x/c limits  1.000 1.000
   Bottom side refined area x/c limits  1.000 1.000

 XFOIL   c>  
.OPERi   c>   Current iteration limit:          10

Enter new iteration limit   i>  
.OPERi   c>  
 XFOIL   c>  
 XFOIL   c>  
 XFOIL   c>  
.OPERi   c>  
.OPERi   c>  
 Sonic Cp =    -86.47      Sonic Q/Qinf =    10.380


.OPERi   c>  
 M  =    0.0880
 Re =     42581

.OPERv   c>  
 Polar  1 newly created for accumulation
 Airfoil archived with polar: NACA 4412                                       

Enter  polar save filename  OR  <return> for no file   s>  
 Polar save file will NOT be written

Enter  polar dump filename  OR  <return> for no file   s>  
 Polar dump file will NOT be written

 Polar accumulation enabled

.OPERva   c>   Calculating unit vorticity distributions ...
 Calculating wake trajectory ...
 Calculating source influence matrix ...

 Solving BL system ...

 Initializing BL ...
    side            1  ...
 MRCHUE: Inverse mode at  59     Hk =   3.800
 MRCHUE: Inverse mode at  60     Hk =   3.968
 MRCHUE: Inverse mode at  61     Hk =   4.133
 MRCHUE: Inverse mode at  62     Hk =   4.294
 MRCHUE: Inverse mode at  63     Hk =   4.451
 MRCHUE: Inverse mode at  64     Hk =   4.602
 MRCHUE: Inverse mode at  65     Hk =   4.746
 MRCHUE: Convergence failed at  66  side 1    Res =  0.2702E+01
 MRCHUE: Inverse mode at  67     Hk =   4.864
 MRCHUE: Convergence failed at  68  side 1    Res =  0.3205E+01
 MRCHUE: Inverse mode at  69     Hk =   4.922
    side            2  ...
 MRCHUE: Inverse mode at  24     Hk =   3.866
 MRCHUE: Inverse mode at  25     Hk =   4.147
 MRCHUE: Inverse mode at  26     Hk =   4.422
 MRCHUE: Convergence failed at  27  side 2    Res =  0.3552E+02
 MRCHUE: Inverse mode at  28     Hk =   4.722
 MRCHUE: Inverse mode at  29     Hk =   5.021
 MRCHUE: Convergence failed at  30  side 2    Res =  0.8500E+01
 MRCHUE: Inverse mode at  31     Hk =   5.366
 MRCHUE: Convergence failed at  32  side 2    Res =  0.4255E+01
 MRCHUE: Inverse mode at  33     Hk =   5.766
 MRCHUE: Inverse mode at  34     Hk =   6.184
 MRCHUE: Inverse mode at  35     Hk =   6.626
 MRCHUE: Inverse mode at  36     Hk =   7.094
 MRCHUE: Inverse mode at  37     Hk =   7.584
 MRCHUE: Inverse mode at  38     Hk =   8.088
 MRCHUE: Inverse mode at  39     Hk =   8.598
 MRCHUE: Inverse mode at  40     Hk =   9.108
 MRCHUE: Inverse mode at  41     Hk =   9.611
 MRCHUE: Inverse mode at  42     Hk =   8.815
 MRCHUE: Inverse mode at  43     Hk =   6.848
 MRCHUE: Inverse mode at  44     Hk =   5.556
 MRCHUE: Inverse mode at  45     Hk =   4.579
 MRCHUE: Inverse mode at  46     Hk =   3.797
 MRCHUE: Inverse mode at  47     Hk =   3.141
 MRCHUE: Inverse mode at  48     Hk =   2.561
 MRCHUE: Inverse mode at  49     Hk =   2.500
 MRCHUE: Convergence failed at  49  side 2    Res =  0.4484E-01
 MRCHUE: Inverse mode at  50     Hk =   2.500
 MRCHUE: Convergence failed at  50  side 2    Res =  0.6659E-01
 MRCHUE: Inverse mode at  51     Hk =   2.500
 MRCHUE: Inverse mode at  52     Hk =   2.500
 MRCHUE: Inverse mode at  53     Hk =   2.500
 MRCHUE: Inverse mode at  54     Hk =   2.500
 MRCHUE: Inverse mode at  55     Hk =   2.500
 MRCHUE: Inverse mode at  56     Hk =   2.500
 MRCHUE: Inverse mode at  57     Hk =   2.500
 MRCHUE: Inverse mode at  58     Hk =   2.500
 MRCHUE: Inverse mode at  59     Hk =   2.500
 MRCHUE: Inverse mode at  60     Hk =   2.500
 MRCHUE: Inverse mode at  61     Hk =   2.500
 MRCHUE: Inverse mode at  62     Hk =   2.500
 MRCHUE: Inverse mode at  63     Hk =   2.500
 MRCHUE: Inverse mode at  64     Hk =   2.500
 MRCHUE: Inverse mode at  65     Hk =   2.500
 MRCHUE: Inverse mode at  66     Hk =   2.500
 MRCHUE: Inverse mode at  67     Hk =   2.500
 MRCHUE: Inverse mode at  68     Hk =   2.500
 MRCHUE: Inverse mode at  69     Hk =   2.500
 MRCHUE: Inverse mode at  70     Hk =   2.500
 MRCHUE: Inverse mode at  71     Hk =   2.500
 MRCHUE: Inverse mode at  72     Hk =   2.500
 MRCHUE: Inverse mode at  73     Hk =   2.500
 MRCHUE: Inverse mode at  74     Hk =   2.500
 MRCHUE: Inverse mode at  75     Hk =   2.500
 MRCHUE: Inverse mode at  76     Hk =   2.500
 MRCHUE: Inverse mode at  77     Hk =   2.500
 MRCHUE: Inverse mode at  78     Hk =   2.500
 MRCHUE: Inverse mode at  79     Hk =   2.500
 MRCHUE: Inverse mode at  80     Hk =   2.500
 MRCHUE: Inverse mode at  81     Hk =   2.500
 MRCHUE: Inverse mode at  82     Hk =   2.500
 MRCHUE: Inverse mode at  83     Hk =   2.500
 MRCHUE: Inverse mode at  84     Hk =   2.500
 MRCHUE: Inverse mode at  85     Hk =   2.500
 MRCHUE: Inverse mode at  86     Hk =   2.500
 MRCHUE: Inverse mode at  87     Hk =   2.500
 MRCHUE: Inverse mode at  88     Hk =   2.500
 MRCHUE: Inverse mode at  89     Hk =   2.500
 MRCHUE: Convergence failed at  90  side 2    Res =  0.4206E+01
 MRCHUE: Inverse mode at  91     Hk =   2.500
 MRCHUE: Inverse mode at  92     Hk =   2.500
 MRCHUE: Convergence failed at  93  side 2    Res =  0.4223E+01

 MRCHDU: Convergence failed at  68  side 1    Res =  0.3245E+01
 MRCHDU: Convergence failed at  69  side 1    Res =  0.3395E+01
 MRCHDU: Convergence failed at  30  side 2    Res =  0.2324E+01
 MRCHDU: Convergence failed at  31  side 2    Res =  0.2148E+01
 MRCHDU: Convergence failed at  32  side 2    Res =  0.5220E+01
 MRCHDU: Convergence failed at  33  side 2    Res =  0.4873E+01
 MRCHDU: Convergence failed at  34  side 2    Res =  0.6099E+01
 MRCHDU: Convergence failed at  35  side 2    Res =  0.8487E+01
 MRCHDU: Convergence failed at  36  side 2    Res =  0.1596E+02
 MRCHDU: Convergence failed at  37  side 2    Res =  0.5675E+02
 MRCHDU: Convergence failed at  38  side 2    Res =  0.2229E+02
 MRCHDU: Convergence failed at  39  side 2    Res =  0.1162E+02
 MRCHDU: Convergence failed at  40  side 2    Res =  0.6307E+01
 MRCHDU: Convergence failed at  41  side 2    Res =  0.7039E+01
 MRCHDU: Convergence failed at  42  side 2    Res =  0.1276E+02
 MRCHDU: Convergence failed at  43  side 2    Res =  0.4723E+01
 MRCHDU: Convergence failed at  44  side 2    Res =  0.7015E+01
 MRCHDU: Convergence failed at  45  side 2    Res =  0.2675E+02
 MRCHDU: Convergence failed at  46  side 2    Res =  0.4949E+02
 MRCHDU: Convergence failed at  47  side 2    Res =  0.1631E+02
 MRCHDU: Convergence failed at  48  side 2    Res =  0.3030E+02
 MRCHDU: Convergence failed at  49  side 2    Res =  0.6118E+02
 MRCHDU: Convergence failed at  50  side 2    Res =  0.4258E+02
 MRCHDU: Convergence failed at  51  side 2    Res =  0.7527E+02
 MRCHDU: Convergence failed at  52  side 2    Res =  0.4723E+02
 MRCHDU: Convergence failed at  53  side 2    Res =  0.5253E+02
 MRCHDU: Convergence failed at  54  side 2    Res =  0.4137E+02
 MRCHDU: Convergence failed at  55  side 2    Res =  0.3495E+02
 MRCHDU: Convergence failed at  56  side 2    Res =  0.3783E+02
 MRCHDU: Convergence failed at  57  side 2    Res =  0.1547E+02
 MRCHDU: Convergence failed at  58  side 2    Res =  0.1531E+02
 MRCHDU: Convergence failed at  59  side 2    Res =  0.3603E+02
 MRCHDU: Convergence failed at  60  side 2    Res =  0.4091E+02
 MRCHDU: Convergence failed at  61  side 2    Res =  0.4464E+02
 MRCHDU: Convergence failed at  62  side 2    Res =  0.4928E+02
 MRCHDU: Convergence failed at  63  side 2    Res =  0.4241E+02
 MRCHDU: Convergence failed at  64  side 2    Res =  0.3738E+02
 MRCHDU: Convergence failed at  65  side 2    Res =  0.4377E+03
 MRCHDU: Convergence failed at  66  side 2    Res =  0.1721E+03
 MRCHDU: Convergence failed at  67  side 2    Res =  0.1149E+03
 MRCHDU: Convergence failed at  68  side 2    Res =  0.8602E+02
 MRCHDU: Convergence failed at  69  side 2    Res =  0.6979E+02
 MRCHDU: Convergence failed at  70  side 2    Res =  0.5965E+02
 MRCHDU: Convergence failed at  71  side 2    Res =  0.5289E+02
 MRCHDU: Convergence failed at  72  side 2    Res =  0.4747E+02
 MRCHDU: Convergence failed at  73  side 2    Res =  0.4341E+02
 MRCHDU: Convergence failed at  74  side 2    Res =  0.4014E+02
 MRCHDU: Convergence failed at  75  side 2    Res =  0.3763E+02
 MRCHDU: Convergence failed at  76  side 2    Res =  0.3540E+02
 MRCHDU: Convergence failed at  77  side 2    Res =  0.3355E+02
 MRCHDU: Convergence failed at  78  side 2    Res =  0.3194E+02
 MRCHDU: Convergence failed at  79  side 2    Res =  0.3056E+02
 MRCHDU: Convergence failed at  80  side 2    Res =  0.2941E+02
 MRCHDU: Convergence failed at  81  side 2    Res =  0.2835E+02
 MRCHDU: Convergence failed at  82  side 2    Res =  0.2739E+02
 MRCHDU: Convergence failed at  83  side 2    Res =  0.2653E+02
 MRCHDU: Convergence failed at  84  side 2    Res =  0.2575E+02
 MRCHDU: Convergence failed at  85  side 2    Res =  0.2509E+02
 MRCHDU: Convergence failed at  86  side 2    Res =  0.2443E+02
 MRCHDU: Convergence failed at  87  side 2    Res =  0.2381E+02
 MRCHDU: Convergence failed at  88  side 2    Res =  0.2321E+02
 MRCHDU: Convergence failed at  89  side 2    Res =  0.2261E+02
 MRCHDU: Convergence failed at  90  side 2    Res =  0.1497E+02
 MRCHDU: Convergence failed at  91  side 2    Res =  0.1478E+02
 MRCHDU: Convergence failed at  92  side 2    Res =  0.1460E+02
 MRCHDU: Convergence failed at  93  side 2    Res =  0.1123E+02
 Side 1 forced transition at x/c =  1.0000   69
 Side 2  free  transition at x/c =  0.1570   42

   1   rms: 0.2186E+01   max: 0.5713E+01   D at   95  2   RLX: 0.040
       a =-10.000      CL = -5.4698
      Cm =  1.3171     CD =  0.00386   =>   CDf =  0.00575    CDp = -0.00189

 Side 1 forced transition at x/c =  1.0000   69
 Side 2 forced transition at x/c =  1.0000   93

   2   rms: 0.1693E+01   max: 0.3621E+01   D at   95  2   RLX: 0.108
       a =-10.000      CL = -4.7263
      Cm =  1.1138     CD =  0.00482   =>   CDf =  0.02610    CDp = -0.02128

 Side 1 forced transition at x/c =  1.0000   69
 Side 2 forced transition at x/c =  1.0000   93

   3   rms: 0.1544E+01   max: 0.2628E+01   D at   96  2   RLX: 0.130
       a =-10.000      CL = -4.0750
      Cm =  0.8995     CD =  0.00562   =>   CDf =  0.02164    CDp = -0.01602

 Side 1 forced transition at x/c =  1.0000   69
 Side 2  free  transition at x/c =  0.1379   41

   4   rms: 0.1407E+01   max: 0.1731E+01   D at  100  2   RLX: 0.156
       a =-10.000      CL = -3.4151
      Cm =  0.6835     CD =  0.00888   =>   CDf =  0.03071    CDp = -0.02183

 Side 1 forced transition at x/c =  1.0000   69
 Side 2  free  transition at x/c =  0.1147   40

   5   rms: 0.1240E+01   max: 0.1803E+01   D at  102  2   RLX: 0.192
       a =-10.000      CL = -2.7999
      Cm =  0.4888     CD =  0.01198   =>   CDf =  0.02580    CDp = -0.01382

 Side 1 forced transition at x/c =  1.0000   69
 Side 2  free  transition at x/c =  0.1114   39

   6   rms: 0.1137E+01   max: 0.1743E+01   D at  106  2   RLX: 0.259
       a =-10.000      CL = -2.2093
      Cm =  0.3037     CD =  0.01823   =>   CDf =  0.02250    CDp = -0.00427

 Side 1 forced transition at x/c =  1.0000   69
 Side 2  free  transition at x/c =  0.1157   40

   7   rms: 0.1363E+01   max: 0.4674E+01   D at   43  2   RLX: 0.175
       a =-10.000      CL = -1.9607
      Cm =  0.2217     CD =  0.02453   =>   CDf =  0.01682    CDp =  0.00771

 Side 1 forced transition at x/c =  1.0000   69
 Side 2  free  transition at x/c =  0.1300   41

   8   rms: 0.9029E+01   max: 0.6989E+02   T at   41  2   RLX: 0.016
       a =-10.000      CL = -1.9265
      Cm =  0.2127     CD =  0.02418   =>   CDf =  0.01196    CDp =  0.01222

 MRCHDU: Convergence failed at  43  side 2    Res =  0.1596E+01
 MRCHDU: Convergence failed at  44  side 2    Res =  0.1417E+01
 MRCHDU: Convergence failed at  45  side 2    Res =  0.3599E+01
 MRCHDU: Convergence failed at  46  side 2    Res =  0.1567E+02
 MRCHDU: Convergence failed at  47  side 2    Res =  0.1909E+02
 MRCHDU: Convergence failed at  48  side 2    Res =  0.8863E+01
 MRCHDU: Convergence failed at  49  side 2    Res =  0.1014E+02
 MRCHDU: Convergence failed at  50  side 2    Res =  0.8158E+01
 MRCHDU: Convergence failed at  51  side 2    Res =  0.7022E+01
 MRCHDU: Convergence failed at  52  side 2    Res =  0.6322E+01
 MRCHDU: Convergence failed at  53  side 2    Res =  0.5846E+01
 MRCHDU: Convergence failed at  54  side 2    Res =  0.5533E+01
 MRCHDU: Convergence failed at  55  side 2    Res =  0.5347E+01
 MRCHDU: Convergence failed at  56  side 2    Res =  0.5253E+01
 MRCHDU: Convergence failed at  57  side 2    Res =  0.5181E+01
 MRCHDU: Convergence failed at  58  side 2    Res =  0.5184E+01
 MRCHDU: Convergence failed at  59  side 2    Res =  0.5263E+01
 MRCHDU: Convergence failed at  60  side 2    Res =  0.5426E+01
 MRCHDU: Convergence failed at  61  side 2    Res =  0.5581E+01
 MRCHDU: Convergence failed at  62  side 2    Res =  0.5761E+01
 MRCHDU: Convergence failed at  63  side 2    Res =  0.5980E+01
 MRCHDU: Convergence failed at  64  side 2    Res =  0.6198E+01
 MRCHDU: Convergence failed at  65  side 2    Res =  0.6416E+01
 MRCHDU: Convergence failed at  66  side 2    Res =  0.6948E+01
 MRCHDU: Convergence failed at  67  side 2    Res =  0.7194E+01
 MRCHDU: Convergence failed at  68  side 2    Res =  0.7464E+01
 MRCHDU: Convergence failed at  69  side 2    Res =  0.7760E+01
 MRCHDU: Convergence failed at  70  side 2    Res =  0.8227E+01
 MRCHDU: Convergence failed at  71  side 2    Res =  0.8585E+01
 MRCHDU: Convergence failed at  72  side 2    Res =  0.8942E+01
 MRCHDU: Convergence failed at  73  side 2    Res =  0.9315E+01
 MRCHDU: Convergence failed at  74  side 2    Res =  0.9967E+01
 MRCHDU: Convergence failed at  75  side 2    Res =  0.1072E+02
 MRCHDU: Convergence failed at  76  side 2    Res =  0.1117E+02
 MRCHDU: Convergence failed at  77  side 2    Res =  0.1156E+02
 MRCHDU: Convergence failed at  78  side 2    Res =  0.1198E+02
 MRCHDU: Convergence failed at  79  side 2    Res =  0.1244E+02
 MRCHDU: Convergence failed at  80  side 2    Res =  0.1293E+02
 MRCHDU: Convergence failed at  81  side 2    Res =  0.1344E+02
 MRCHDU: Convergence failed at  82  side 2    Res =  0.1401E+02
 MRCHDU: Convergence failed at  83  side 2    Res =  0.1464E+02
 MRCHDU: Convergence failed at  84  side 2    Res =  0.1534E+02
 MRCHDU: Convergence failed at  85  side 2    Res =  0.1610E+02
 MRCHDU: Convergence failed at  86  side 2    Res =  0.1698E+02
 MRCHDU: Convergence failed at  87  side 2    Res =  0.2025E+02
 MRCHDU: Convergence failed at  88  side 2    Res =  0.2224E+02
 MRCHDU: Convergence failed at  89  side 2    Res =  0.2826E+02
 MRCHDU: Convergence failed at  90  side 2    Res =  0.4079E+02
 MRCHDU: Convergence failed at  91  side 2    Res =  0.1229E+03
 MRCHDU: Convergence failed at  92  side 2    Res =  0.5335E+03
 MRCHDU: Convergence failed at  93  side 2    Res =  0.3974E+02
 Side 1 forced transition at x/c =  1.0000   69
 Side 2  free  transition at x/c =  0.1202   40

   9   rms: 0.1290E+01   max: 0.2314E+01   D at   99  2   RLX: 0.189
       a =-10.000      CL = -2.6779
      Cm =  0.5257     CD =  0.01689   =>   CDf =  0.00786    CDp =  0.00904

 Side 1 forced transition at x/c =  1.0000   70
 Side 2  free  transition at x/c =  0.1298   40

  10   rms: 0.1089E+01   max: -.4186E+01   T at   40  2   RLX: 0.119
       a =-10.000      CL = -2.3996
      Cm =  0.4260     CD =  0.01745   =>   CDf =  0.02325    CDp = -0.00581

 Side 1 forced transition at x/c =  1.0000   70
 Side 2  free  transition at x/c =  0.1400   40

  11   rms: 0.1101E+01   max: -.4263E+01   T at   40  2   RLX: 0.117
       a =-10.000      CL = -2.2013
      Cm =  0.3519     CD =  0.02236   =>   CDf =  0.01954    CDp =  0.00282

 Side 1 forced transition at x/c =  1.0000   70
 Side 2  free  transition at x/c =  0.1525   41

  12   rms: 0.1329E+01   max: -.8518E+01   T at   41  2   RLX: 0.059
       a =-10.000      CL = -2.1249
      Cm =  0.3194     CD =  0.02069   =>   CDf =  0.01787    CDp =  0.00282

 Side 1 forced transition at x/c =  1.0000   70
 Side 2  free  transition at x/c =  0.1695   42

  13   rms: 0.1439E+01   max: -.1221E+02   T at   42  2   RLX: 0.041
       a =-10.000      CL = -2.0792
      Cm =  0.2988     CD =  0.02164   =>   CDf =  0.01632    CDp =  0.00532

 Side 1 forced transition at x/c =  1.0000   70
 Side 2  free  transition at x/c =  0.1951   44

  14   rms: 0.2553E+01   max: -.3340E+02   T at   44  2   RLX: 0.015
       a =-10.000      CL = -2.0820
      Cm =  0.2903     CD =  0.02070   =>   CDf =  0.01555    CDp =  0.00515

 Side 1 forced transition at x/c =  1.0000   70
 Side 2  free  transition at x/c =  0.2060   44

  15   rms: 0.1350E+01   max: -.1279E+02   T at   44  2   RLX: 0.039
       a =-10.000      CL = -2.0437
      Cm =  0.2735     CD =  0.02393   =>   CDf =  0.01400    CDp =  0.00994

 TRCHEK2: N2 convergence failed.
 x:  0.30864  0.32573  0.32573  N:  8.888  9.000  9.026  Nx:   8.045   dN: 0.261E-01
 TRCHEK2: N2 convergence failed.
 x:  0.30864  0.32506  0.32573  N:  8.888  9.000  9.011  Nx:   7.867   dN: 0.305E-01
 TRCHEK2: N2 convergence failed.
 x:  0.30864  0.32343  0.32573  N:  8.888  9.000  9.010  Nx:   8.409   dN:-0.122E-01
 TRCHEK2: N2 convergence failed.
 x:  0.30864  0.32329  0.32573  N:  8.888  9.000  9.011  Nx:   8.265   dN:-0.813E-02
 TRCHEK2: N2 convergence failed.
 x:  0.30864  0.32357  0.32573  N:  8.888  9.000  9.024  Nx:   7.909   dN: 0.200E-01
 TRCHEK2: N2 convergence failed.
 x:  0.30864  0.32376  0.32573  N:  8.888  9.000  9.022  Nx:   7.889   dN: 0.158E-01
 TRCHEK2: N2 convergence failed.
 x:  0.30864  0.32342  0.32573  N:  8.888  9.000  9.010  Nx:   8.210   dN:-0.109E-01
 TRCHEK2: N2 convergence failed.
 x:  0.30864  0.32358  0.32573  N:  8.888  9.000  9.024  Nx:   7.927   dN: 0.466E-01
 TRCHEK2: N2 convergence failed.
 x:  0.30864  0.32338  0.32573  N:  8.888  9.000  9.010  Nx:   8.330   dN:-0.809E-02
 TRCHEK2: N2 convergence failed.
 x:  0.30864  0.32369  0.32573  N:  8.888  9.000  9.022  Nx:   7.908   dN: 0.217E-01
 TRCHEK2: N2 convergence failed.
 x:  0.30864  0.32456  0.32573  N:  8.888  9.000  9.015  Nx:   7.855   dN: 0.143E-01
 TRCHEK2: N2 convergence failed.
 x:  0.30864  0.32342  0.32573  N:  8.888  9.000  9.010  Nx:   8.327   dN:-0.100E-01
 TRCHEK2: N2 convergence failed.
 x:  0.30864  0.32370  0.32573  N:  8.888  9.000  9.022  Nx:   7.910   dN: 0.262E-01
 TRCHEK2: N2 convergence failed.
 x:  0.30864  0.32340  0.32573  N:  8.888  9.000  9.010  Nx:   8.283   dN:-0.916E-02
 TRCHEK2: N2 convergence failed.
 x:  0.30864  0.32360  0.32573  N:  8.888  9.000  9.023  Nx:   7.936   dN: 0.121E+00
 TRCHEK2: N2 convergence failed.
 x:  0.30864  0.32375  0.32573  N:  8.888  9.000  9.008  Nx:   7.951   dN:-0.766E-01
 TRCHEK2: N2 convergence failed.
 x:  0.30864  0.32399  0.32573  N:  8.888  9.000  9.020  Nx:   7.890   dN: 0.252E-01
 TRCHEK2: N2 convergence failed.
 x:  0.30864  0.32500  0.32573  N:  8.888  9.000  9.011  Nx:   7.874   dN: 0.179E-01
 TRCHEK2: N2 convergence failed.
 x:  0.30864  0.32497  0.32573  N:  8.888  9.000  9.011  Nx:   7.865   dN: 0.175E-01
 TRCHEK2: N2 convergence failed.
 x:  0.30864  0.32394  0.32573  N:  8.888  9.000  9.020  Nx:   7.938   dN: 0.331E+00
 TRCHEK2: N2 convergence failed.
 x:  0.30864  0.32324  0.32573  N:  8.888  9.000  9.013  Nx:   9.586   dN:-0.613E-02
 TRCHEK2: N2 convergence failed.
 x:  0.30864  0.32344  0.32573  N:  8.888  9.000  9.011  Nx:   9.005   dN:-0.598E-02
 TRCHEK2: N2 convergence failed.
 x:  0.30864  0.32492  0.32573  N:  8.888  9.000  9.012  Nx:   7.868   dN: 0.172E-01
 TRCHEK2: N2 convergence failed.
 x:  0.30864  0.32328  0.32573  N:  8.888  9.000  9.013  Nx:   9.258   dN:-0.622E-02
 MRCHDU: Convergence failed at  48  side 2    Res =  0.4011E+02
 MRCHDU: Convergence failed at  49  side 2    Res =  0.3453E+02
 MRCHDU: Convergence failed at  50  side 2    Res =  0.1834E+02
 MRCHDU: Convergence failed at  51  side 2    Res =  0.5251E+02
 MRCHDU: Convergence failed at  52  side 2    Res =  0.2808E+04
 MRCHDU: Convergence failed at  53  side 2    Res =  0.6847E+02
 MRCHDU: Convergence failed at  54  side 2    Res =  0.5505E+02
 MRCHDU: Convergence failed at  55  side 2    Res =  0.4404E+02
 MRCHDU: Convergence failed at  56  side 2    Res =  0.2739E+02
 MRCHDU: Convergence failed at  57  side 2    Res =  0.4118E+02
 MRCHDU: Convergence failed at  58  side 2    Res =  0.4044E+02
 MRCHDU: Convergence failed at  59  side 2    Res =  0.4324E+02
 MRCHDU: Convergence failed at  60  side 2    Res =  0.8886E+02
 MRCHDU: Convergence failed at  61  side 2    Res =  0.7870E+02
 MRCHDU: Convergence failed at  62  side 2    Res =  0.5387E+02
 MRCHDU: Convergence failed at  63  side 2    Res =  0.7811E+02
 MRCHDU: Convergence failed at  64  side 2    Res =  0.4718E+02
 MRCHDU: Convergence failed at  65  side 2    Res =  0.7940E+02
 MRCHDU: Convergence failed at  66  side 2    Res =  0.7782E+02
 MRCHDU: Convergence failed at  67  side 2    Res =  0.7618E+02
 MRCHDU: Convergence failed at  68  side 2    Res =  0.7509E+02
 MRCHDU: Convergence failed at  69  side 2    Res =  0.7427E+02
 MRCHDU: Convergence failed at  70  side 2    Res =  0.7389E+02
 MRCHDU: Convergence failed at  71  side 2    Res =  0.7369E+02
 MRCHDU: Convergence failed at  72  side 2    Res =  0.7369E+02
 MRCHDU: Convergence failed at  73  side 2    Res =  0.7382E+02
 MRCHDU: Convergence failed at  74  side 2    Res =  0.7401E+02
 MRCHDU: Convergence failed at  75  side 2    Res =  0.7434E+02
 MRCHDU: Convergence failed at  76  side 2    Res =  0.7451E+02
 MRCHDU: Convergence failed at  77  side 2    Res =  0.7436E+02
 MRCHDU: Convergence failed at  78  side 2    Res =  0.7408E+02
 MRCHDU: Convergence failed at  79  side 2    Res =  0.7376E+02
 MRCHDU: Convergence failed at  80  side 2    Res =  0.7362E+02
 MRCHDU: Convergence failed at  81  side 2    Res =  0.7336E+02
 MRCHDU: Convergence failed at  82  side 2    Res =  0.7329E+02
 MRCHDU: Convergence failed at  83  side 2    Res =  0.7328E+02
 MRCHDU: Convergence failed at  84  side 2    Res =  0.7336E+02
 MRCHDU: Convergence failed at  85  side 2    Res =  0.7354E+02
 MRCHDU: Convergence failed at  86  side 2    Res =  0.7379E+02
 MRCHDU: Convergence failed at  87  side 2    Res =  0.7424E+02
 MRCHDU: Convergence failed at  88  side 2    Res =  0.7494E+02
 MRCHDU: Convergence failed at  89  side 2    Res =  0.7591E+02
 MRCHDU: Convergence failed at  90  side 2    Res =  0.7729E+02
 MRCHDU: Convergence failed at  91  side 2    Res =  0.7894E+02
 MRCHDU: Convergence failed at  92  side 2    Res =  0.8215E+02
 Side 1 forced transition at x/c =  1.0000   70
 Side 2  free  transition at x/c =  0.2678   48

  16   rms: 0.2774E+01   max: 0.2739E+02   C at   48  2   RLX: 0.055
       a =-10.000      CL = -3.1246
      Cm =  0.7353     CD =  0.01030   =>   CDf =  0.00511    CDp =  0.00519

 Side 1 forced transition at x/c =  1.0000   70
 Side 2  free  transition at x/c =  0.2623   48
 idif Ue xi dudx           1  0.10809238      5.58829308E-03   19.342648    
 Uenew xinew           2  1.26947099E-02  6.56306744E-04

  17   rms: 0.8445E+01   max: 0.9499E+02   T at   48  2   RLX: 0.016
       a =-10.000      CL = -2.7395
      Cm =  0.5200     CD =  0.05515   =>   CDf =  0.00563    CDp =  0.04952

 Side 1 forced transition at x/c =  1.0000   69
 Side 2  free  transition at x/c =  0.2417   48

  18   rms: 0.5063E+01   max: 0.5404E+02   T at   48  2   RLX: 0.028
       a =-10.000      CL = -2.9017
      Cm =  0.5352     CD =  0.05105   =>   CDf =  0.00559    CDp =  0.04546

 Side 1 forced transition at x/c =  1.0000   69
 Side 2  free  transition at x/c =  0.2344   47

  19   rms: 0.1060E+03   max: 0.2073E+04   T at   47  2   RLX: 0.000
       a =-10.000      CL = -2.9101
      Cm =  0.5326     CD =  0.04923   =>   CDf =  0.00534    CDp =  0.04389

 Side 1 forced transition at x/c =  1.0000   69
 Side 2  free  transition at x/c =  0.2317   47

  20   rms: 0.4009E+01   max: -.4790E+02   T at   47  2   RLX: 0.010
       a =-10.000      CL = -2.8698
      Cm =  0.5301     CD =  0.05187   =>   CDf =  0.00536    CDp =  0.04651

 Side 1 forced transition at x/c =  1.0000   69
 Side 2  free  transition at x/c =  0.2413   48
 idif Ue xi dudx           1  0.12162981      6.81173801E-03   17.855915    
 Uenew xinew           2  2.20788103E-02  1.23649836E-03

  21   rms: 0.1230E+02   max: 0.8558E+02   T at   48  2   RLX: 0.018
       a =-10.000      CL = -2.9176
      Cm =  0.4654     CD =  0.04435   =>   CDf =  0.00517    CDp =  0.03918

 MRCHDU: Convergence failed at  50  side 2    Res =  0.2168E+01
 MRCHDU: Convergence failed at  51  side 2    Res =  0.2748E+02
 MRCHDU: Convergence failed at  52  side 2    Res =  0.5532E+01
 MRCHDU: Convergence failed at  53  side 2    Res =  0.1049E+02
 MRCHDU: Convergence failed at  54  side 2    Res =  0.6632E+01
 MRCHDU: Convergence failed at  55  side 2    Res =  0.2457E+02
 MRCHDU: Convergence failed at  56  side 2    Res =  0.5815E+01
 MRCHDU: Convergence failed at  57  side 2    Res =  0.8786E+01
 MRCHDU: Convergence failed at  58  side 2    Res =  0.1176E+02
 MRCHDU: Convergence failed at  59  side 2    Res =  0.2894E+01
 MRCHDU: Convergence failed at  60  side 2    Res =  0.4198E+01
 MRCHDU: Convergence failed at  61  side 2    Res =  0.8086E+01
 MRCHDU: Convergence failed at  62  side 2    Res =  0.5635E+01
 MRCHDU: Convergence failed at  63  side 2    Res =  0.1180E+01
 MRCHDU: Convergence failed at  64  side 2    Res =  0.7860E+00
 MRCHDU: Convergence failed at  65  side 2    Res =  0.2611E+01
 Side 1 forced transition at x/c =  1.0000   68
 Side 2  free  transition at x/c =  0.2363   48

  22   rms: 0.1941E+01   max: -.1626E+02   T at   48  2   RLX: 0.031
       a =-10.000      CL = -3.7541
      Cm =  0.7886     CD =  0.03475   =>   CDf =  0.00453    CDp =  0.03022

 Side 1 forced transition at x/c =  1.0000   68
 Side 2  free  transition at x/c =  0.2408   48

  23   rms: 0.1312E+01   max: -.6098E+01   T at   48  2   RLX: 0.082
       a =-10.000      CL = -3.1491
      Cm =  0.5494     CD =  0.04456   =>   CDf =  0.00553    CDp =  0.03903

 Side 1 forced transition at x/c =  1.0000   68
 Side 2  free  transition at x/c =  0.2382   48

  24   rms: 0.1057E+01   max: 0.2059E+01   D at  106  2   RLX: 0.205
       a =-10.000      CL = -2.7962
      Cm =  0.3713     CD =  0.04845   =>   CDf =  0.00567    CDp =  0.04278

 Side 1 forced transition at x/c =  1.0000   68
 Side 2  free  transition at x/c =  0.2376   48

  25   rms: 0.1351E+01   max: 0.3718E+01   D at  107  2   RLX: 0.162
       a =-10.000      CL = -2.4489
      Cm =  0.3409     CD =  0.06182   =>   CDf =  0.00596    CDp =  0.05586

 Side 1 forced transition at x/c =  1.0000   69
 Side 2  free  transition at x/c =  0.2381   47

  26   rms: 0.1250E+01   max: 0.2595E+01   D at  109  2   RLX: 0.227
       a =-10.000      CL = -1.8863
      Cm =  0.2665     CD =  0.08644   =>   CDf =  0.00657    CDp =  0.07987

 Side 1 forced transition at x/c =  1.0000   70
 Side 2  free  transition at x/c =  0.2382   46

  27   rms: 0.7592E+00   max: 0.9456E+00   D at  111  2   RLX: 0.323
       a =-10.000      CL = -1.3086
      Cm =  0.1485     CD =  0.10605   =>   CDf =  0.00731    CDp =  0.09874

 Side 1 forced transition at x/c =  1.0000   71
 Side 2  free  transition at x/c =  0.2392   45

  28   rms: 0.4761E+00   max: 0.4153E+00   T at   92  2   RLX: 0.535
       a =-10.000      CL = -0.7814
      Cm =  0.0438     CD =  0.12519   =>   CDf =  0.00783    CDp =  0.11736

 Side 1 forced transition at x/c =  1.0000   73
 Side 2  free  transition at x/c =  0.2399   43

  29   rms: 0.2450E+00   max: -.1402E+01   T at    2  1   RLX: 0.357
       a =-10.000      CL = -0.6245
      Cm =  0.0134     CD =  0.12719   =>   CDf =  0.00783    CDp =  0.11936

 Side 1 forced transition at x/c =  1.0000   73
 Side 2  free  transition at x/c =  0.2403   43

  30   rms: 0.1506E+00   max: -.1786E+00   D at   90  2
       a =-10.000      CL = -0.3640
      Cm = -0.0325     CD =  0.13519   =>   CDf =  0.00793    CDp =  0.12726

 Side 1 forced transition at x/c =  1.0000   74
 Side 2  free  transition at x/c =  0.2397   42

  31   rms: 0.4565E-01   max: 0.1631E+00   D at   43  2
       a =-10.000      CL = -0.3426
      Cm = -0.0313     CD =  0.13349   =>   CDf =  0.00791    CDp =  0.12558

 Side 1 forced transition at x/c =  1.0000   74
 Side 2  free  transition at x/c =  0.2405   42

  32   rms: 0.6565E-02   max: 0.3639E-01   D at  105  2
       a =-10.000      CL = -0.3444
      Cm = -0.0321     CD =  0.12981   =>   CDf =  0.00791    CDp =  0.12190

 Side 1 forced transition at x/c =  1.0000   74
 Side 2  free  transition at x/c =  0.2406   42

  33   rms: 0.1011E-03   max: -.8671E-03   D at   42  2
       a =-10.000      CL = -0.3445
      Cm = -0.0321     CD =  0.12982   =>   CDf =  0.00793    CDp =  0.12190

 Side 1 forced transition at x/c =  1.0000   74
 Side 2  free  transition at x/c =  0.2406   42

  34   rms: 0.9775E-05   max: 0.5113E-04   D at  104  2
       a =-10.000      CL = -0.3445
      Cm = -0.0321     CD =  0.12982   =>   CDf =  0.00793    CDp =  0.12190
 plradd ia,ip,cpol            1          73  2.38776021E-03

 Point added to stored polar  1
 Save file unspecified or not available
 Dump file unspecified or not available

.OPERva   c>  
.OPERva   c>  
.OPERva   c>   Calculating wake trajectory ...
 Calculating source influence matrix ...

 Solving BL system ...

 Side 1 forced transition at x/c =  1.0000   74
 Side 2  free  transition at x/c =  0.2406   42

   1   rms: 0.9231E-01   max: -.3583E+00   T at   42  2
       a = -9.600      CL = -0.3946
      Cm = -0.0340     CD =  0.13099   =>   CDf =  0.00793    CDp =  0.12306

 Side 1 forced transition at x/c =  1.0000   74
 Side 2  free  transition at x/c =  0.2392   42

   2   rms: 0.9473E-01   max: 0.3313E+00   D at   43  2
       a = -9.600      CL = -0.3645
      Cm = -0.0303     CD =  0.13700   =>   CDf =  0.00764    CDp =  0.12935

 Side 1 forced transition at x/c =  1.0000   74
 Side 2  free  transition at x/c =  0.2544   43

   3   rms: 0.1981E+00   max: 0.1472E+01   D at   43  2
       a = -9.600      CL = -0.3135
      Cm = -0.0255     CD =  0.13991   =>   CDf =  0.00763    CDp =  0.13228

 Side 1 forced transition at x/c =  1.0000   75
 Side 2  free  transition at x/c =  0.2481   42

   4   rms: 0.4363E-01   max: -.3072E+00   T at   42  2
       a = -9.600      CL = -0.3100
      Cm = -0.0300     CD =  0.12325   =>   CDf =  0.00792    CDp =  0.11533

 Side 1 forced transition at x/c =  1.0000   75
 Side 2  free  transition at x/c =  0.2536   42
 idif Ue xi dudx           1  0.10452396      3.11374664E-03   33.568550    
 Uenew xinew           2  4.69397428E-03  1.39832497E-04

   5   rms: 0.1309E-01   max: -.6866E-01   D at   43  2
       a = -9.600      CL = -0.3138
      Cm = -0.0309     CD =  0.12040   =>   CDf =  0.00796    CDp =  0.11244

 Side 1 forced transition at x/c =  1.0000   74
 Side 2  free  transition at x/c =  0.2546   43

   6   rms: 0.3594E-02   max: 0.2961E-01   T at   43  2
       a = -9.600      CL = -0.3158
      Cm = -0.0306     CD =  0.12145   =>   CDf =  0.00793    CDp =  0.11352

 Side 1 forced transition at x/c =  1.0000   74
 Side 2  free  transition at x/c =  0.2541   43

   7   rms: 0.1130E-02   max: -.1506E-01   D at    4  2
       a = -9.600      CL = -0.3158
      Cm = -0.0306     CD =  0.12151   =>   CDf =  0.00792    CDp =  0.11359

 Side 1 forced transition at x/c =  1.0000   74
 Side 2  free  transition at x/c =  0.2541   43

   8   rms: 0.2734E-04   max: 0.3071E-03   T at   43  2
       a = -9.600      CL = -0.3158
      Cm = -0.0306     CD =  0.12152   =>   CDf =  0.00792    CDp =  0.11360
 plradd ia,ip,cpol            2          73  2.38776021E-03

 Point added to stored polar  1
 Save file unspecified or not available
 Dump file unspecified or not available

.OPERva   c>  
.OPERva   c>  
.OPERva   c>   Calculating wake trajectory ...
 Calculating source influence matrix ...

 Solving BL system ...

 Side 1 forced transition at x/c =  1.0000   74
 Side 2  free  transition at x/c =  0.2541   43

   1   rms: 0.6737E-01   max: -.9241E+00   T at   43  2   RLX: 0.541
       a = -9.200      CL = -0.3309
      Cm = -0.0309     CD =  0.12067   =>   CDf =  0.00792    CDp =  0.11275

 Side 1 forced transition at x/c =  1.0000   74
 Side 2  free  transition at x/c =  0.2526   43

   2   rms: 0.2754E-01   max: -.3988E+00   D at   43  2
       a = -9.200      CL = -0.3265
      Cm = -0.0306     CD =  0.12035   =>   CDf =  0.00780    CDp =  0.11255

 Side 1 forced transition at x/c =  1.0000   75
 Side 2  free  transition at x/c =  0.2680   43

   3   rms: 0.9718E-01   max: -.1061E+01   D at    2  1   RLX: 0.471
       a = -9.200      CL = -0.3061
      Cm = -0.0358     CD =  0.11613   =>   CDf =  0.00773    CDp =  0.10840

 Side 1 forced transition at x/c =  1.0000   75
 Side 2  free  transition at x/c =  0.2656   43

   4   rms: 0.3630E-01   max: 0.2681E+00   D at   43  2
       a = -9.200      CL = -0.3135
      Cm = -0.0286     CD =  0.11960   =>   CDf =  0.00776    CDp =  0.11184

 Side 1 forced transition at x/c =  1.0000   75
 Side 2  free  transition at x/c =  0.2648   43

   5   rms: 0.6654E-02   max: -.8671E-01   T at   43  2
       a = -9.200      CL = -0.3086
      Cm = -0.0296     CD =  0.11665   =>   CDf =  0.00781    CDp =  0.10885

 Side 1 forced transition at x/c =  1.0000   75
 Side 2  free  transition at x/c =  0.2664   43

   6   rms: 0.1411E-02   max: -.5455E-02   D at   44  2
       a = -9.200      CL = -0.3094
      Cm = -0.0296     CD =  0.11657   =>   CDf =  0.00783    CDp =  0.10874

 Side 1 forced transition at x/c =  1.0000   75
 Side 2  free  transition at x/c =  0.2664   43

   7   rms: 0.2479E-03   max: 0.2536E-02   T at   43  2
       a = -9.200      CL = -0.3096
      Cm = -0.0295     CD =  0.11668   =>   CDf =  0.00783    CDp =  0.10885

 Side 1 forced transition at x/c =  1.0000   75
 Side 2  free  transition at x/c =  0.2663   43

   8   rms: 0.1751E-04   max: -.9436E-04   T at   43  2
       a = -9.200      CL = -0.3096
      Cm = -0.0295     CD =  0.11668   =>   CDf =  0.00783    CDp =  0.10885
 plradd ia,ip,cpol            3          74  3.68794217E-03

 Point added to stored polar  1
 Save file unspecified or not available
 Dump file unspecified or not available

.OPERva   c>  
.OPERva   c>  
.OPERva   c>   Calculating wake trajectory ...
 Calculating source influence matrix ...

 Solving BL system ...

 Side 1 forced transition at x/c =  1.0000   75
 Side 2  free  transition at x/c =  0.2663   43

   1   rms: 0.4973E-01   max: -.9993E+00   T at   43  2   RLX: 0.500
       a = -8.800      CL = -0.3064
      Cm = -0.0289     CD =  0.11430   =>   CDf =  0.00783    CDp =  0.10647

 Side 1 forced transition at x/c =  1.0000   75
 Side 2  free  transition at x/c =  0.2706   43

   2   rms: 0.4214E-01   max: -.3108E+00   T at   43  2
       a = -8.800      CL = -0.3207
      Cm = -0.0296     CD =  0.11374   =>   CDf =  0.00780    CDp =  0.10594

 Side 1 forced transition at x/c =  1.0000   75
 Side 2  free  transition at x/c =  0.2746   43

   3   rms: 0.3872E-01   max: -.1082E+00   D at  103  2
       a = -8.800      CL = -0.3514
      Cm = -0.0291     CD =  0.11676   =>   CDf =  0.00769    CDp =  0.10907

 Side 1 forced transition at x/c =  1.0000   75
 Side 2  free  transition at x/c =  0.2780   44

   4   rms: 0.7712E-01   max: 0.4246E+00   D at   44  2
       a = -8.800      CL = -0.3168
      Cm = -0.0263     CD =  0.12012   =>   CDf =  0.00753    CDp =  0.11259

 Side 1 forced transition at x/c =  1.0000   75
 Side 2  free  transition at x/c =  0.2774   44

   5   rms: 0.2643E-01   max: -.2463E+00   T at   44  2
       a = -8.800      CL = -0.3054
      Cm = -0.0282     CD =  0.11195   =>   CDf =  0.00765    CDp =  0.10431

 Side 1 forced transition at x/c =  1.0000   75
 Side 2  free  transition at x/c =  0.2802   44

   6   rms: 0.1154E-01   max: -.6800E-01   D at   44  2
       a = -8.800      CL = -0.3089
      Cm = -0.0285     CD =  0.11192   =>   CDf =  0.00772    CDp =  0.10420

 Side 1 forced transition at x/c =  1.0000   75
 Side 2  free  transition at x/c =  0.2804   44

   7   rms: 0.4195E-02   max: 0.3661E-01   T at   44  2
       a = -8.800      CL = -0.3125
      Cm = -0.0282     CD =  0.11292   =>   CDf =  0.00771    CDp =  0.10521

 Side 1 forced transition at x/c =  1.0000   75
 Side 2  free  transition at x/c =  0.2797   44

   8   rms: 0.2553E-03   max: -.1761E-02   D at   44  2
       a = -8.800      CL = -0.3125
      Cm = -0.0282     CD =  0.11295   =>   CDf =  0.00769    CDp =  0.10526

 Side 1 forced transition at x/c =  1.0000   75
 Side 2  free  transition at x/c =  0.2798   44

   9   rms: 0.1044E-03   max: 0.9424E-03   T at   44  2
       a = -8.800      CL = -0.3126
      Cm = -0.0282     CD =  0.11296   =>   CDf =  0.00769    CDp =  0.10528

 Side 1 forced transition at x/c =  1.0000   75
 Side 2  free  transition at x/c =  0.2797   44

  10   rms: 0.5722E-05   max: -.2445E-04   T at   44  2
       a = -8.800      CL = -0.3126
      Cm = -0.0282     CD =  0.11297   =>   CDf =  0.00769    CDp =  0.10528
 plradd ia,ip,cpol            4          74  3.68794217E-03

 Point added to stored polar  1
 Save file unspecified or not available
 Dump file unspecified or not available

.OPERva   c>  
.OPERva   c>  
.OPERva   c>   Calculating wake trajectory ...
 Calculating source influence matrix ...

 Solving BL system ...

 Side 1 forced transition at x/c =  1.0000   75
 Side 2  free  transition at x/c =  0.2797   44

   1   rms: 0.1008E+00   max: -.1305E+01   T at   44  2   RLX: 0.383
       a = -8.400      CL = -0.2953
      Cm = -0.0272     CD =  0.10984   =>   CDf =  0.00769    CDp =  0.10215

 Side 1 forced transition at x/c =  1.0000   75
 Side 2  free  transition at x/c =  0.2852   44

   2   rms: 0.4755E-01   max: -.5330E+00   T at   44  2   RLX: 0.938
       a = -8.400      CL = -0.3061
      Cm = -0.0275     CD =  0.10811   =>   CDf =  0.00772    CDp =  0.10039

 Side 1 forced transition at x/c =  1.0000   75
 Side 2  free  transition at x/c =  0.2878   44

   3   rms: 0.3144E-01   max: -.3546E+00   D at   44  2
       a = -8.400      CL = -0.3283
      Cm = -0.0269     CD =  0.11098   =>   CDf =  0.00763    CDp =  0.10335

 Side 1 forced transition at x/c =  1.0000   75
 Side 2  free  transition at x/c =  0.2941   45

   4   rms: 0.4349E-01   max: 0.2992E+00   T at   45  2
       a = -8.400      CL = -0.3546
      Cm = -0.0256     CD =  0.11488   =>   CDf =  0.00749    CDp =  0.10739

 Side 1 forced transition at x/c =  1.0000   75
 Side 2  free  transition at x/c =  0.2909   44

   5   rms: 0.2091E-01   max: 0.8400E-01   D at   45  2
       a = -8.400      CL = -0.3441
      Cm = -0.0257     CD =  0.11417   =>   CDf =  0.00739    CDp =  0.10678

 Side 1 forced transition at x/c =  1.0000   75
 Side 2  free  transition at x/c =  0.2918   44

   6   rms: 0.3454E-02   max: -.1133E-01   T at   44  2
       a = -8.400      CL = -0.3453
      Cm = -0.0261     CD =  0.11304   =>   CDf =  0.00743    CDp =  0.10561

 Side 1 forced transition at x/c =  1.0000   75
 Side 2  free  transition at x/c =  0.2919   44

   7   rms: 0.3989E-03   max: -.1795E-02   D at  102  2
       a = -8.400      CL = -0.3453
      Cm = -0.0261     CD =  0.11318   =>   CDf =  0.00743    CDp =  0.10575

 Side 1 forced transition at x/c =  1.0000   75
 Side 2  free  transition at x/c =  0.2919   44

   8   rms: 0.4124E-04   max: 0.1770E-03   D at  103  2
       a = -8.400      CL = -0.3453
      Cm = -0.0261     CD =  0.11317   =>   CDf =  0.00743    CDp =  0.10574
 plradd ia,ip,cpol            5          74  3.68794217E-03

 Point added to stored polar  1
 Save file unspecified or not available
 Dump file unspecified or not available

.OPERva   c>  
.OPERva   c>  
.OPERva   c>   Calculating wake trajectory ...
 Calculating source influence matrix ...

 Solving BL system ...

 Side 1 forced transition at x/c =  1.0000   75
 Side 2  free  transition at x/c =  0.2919   44
 idif Ue xi dudx           1  0.10752703      3.15999985E-03   34.027542    
 Uenew xinew           2  6.33203890E-03  1.86085701E-04

   1   rms: 0.8668E-01   max: -.3275E+00   T at   44  2
       a = -8.000      CL = -0.4101
      Cm = -0.0237     CD =  0.11459   =>   CDf =  0.00745    CDp =  0.10714

 Side 1 forced transition at x/c =  1.0000   74
 Side 2  free  transition at x/c =  0.2905   45

   2   rms: 0.7438E-01   max: -.2676E+00   D at    2  2
       a = -8.000      CL = -0.3904
      Cm = -0.0190     CD =  0.11981   =>   CDf =  0.00708    CDp =  0.11273

 Side 1 forced transition at x/c =  1.0000   75
 Side 2  free  transition at x/c =  0.3045   45

   3   rms: 0.1981E+00   max: 0.1160E+01   D at   45  2   RLX: 0.790
       a = -8.000      CL = -0.2856
      Cm = -0.0243     CD =  0.11208   =>   CDf =  0.00704    CDp =  0.10505

 Side 1 forced transition at x/c =  1.0000   75
 Side 2  free  transition at x/c =  0.3063   45

   4   rms: 0.4636E-01   max: -.1609E+00   T at   45  2
       a = -8.000      CL = -0.3305
      Cm = -0.0242     CD =  0.10668   =>   CDf =  0.00754    CDp =  0.09913

 Side 1 forced transition at x/c =  1.0000   75
 Side 2  free  transition at x/c =  0.3086   45

   5   rms: 0.1369E-01   max: -.4461E-01   D at  102  2
       a = -8.000      CL = -0.3413
      Cm = -0.0236     CD =  0.10787   =>   CDf =  0.00737    CDp =  0.10050

 Side 1 forced transition at x/c =  1.0000   75
 Side 2  free  transition at x/c =  0.3085   45

   6   rms: 0.2432E-02   max: -.8675E-02   D at   45  2
       a = -8.000      CL = -0.3407
      Cm = -0.0233     CD =  0.10850   =>   CDf =  0.00732    CDp =  0.10118

 Side 1 forced transition at x/c =  1.0000   75
 Side 2  free  transition at x/c =  0.3085   45

   7   rms: 0.4740E-03   max: -.2771E-02   T at   45  2
       a = -8.000      CL = -0.3406
      Cm = -0.0233     CD =  0.10838   =>   CDf =  0.00732    CDp =  0.10106

 Side 1 forced transition at x/c =  1.0000   75
 Side 2  free  transition at x/c =  0.3085   45

   8   rms: 0.7584E-05   max: -.3822E-04   D at   96  2
       a = -8.000      CL = -0.3406
      Cm = -0.0233     CD =  0.10838   =>   CDf =  0.00732    CDp =  0.10106
 plradd ia,ip,cpol            6          74  3.68794217E-03

 Point added to stored polar  1
 Save file unspecified or not available
 Dump file unspecified or not available

.OPERva   c>  
.OPERva   c>  
.OPERva   c>   Calculating wake trajectory ...
 Calculating source influence matrix ...

 Solving BL system ...

 Side 1 forced transition at x/c =  1.0000   75
 Side 2  free  transition at x/c =  0.3085   45

   1   rms: 0.9369E-01   max: -.4521E+00   T at   45  2
       a = -7.600      CL = -0.4146
      Cm = -0.0194     CD =  0.11055   =>   CDf =  0.00732    CDp =  0.10323

 Side 1 forced transition at x/c =  1.0000   75
 Side 2  free  transition at x/c =  0.3051   45

   2   rms: 0.9458E-01   max: -.3839E+00   D at   45  2
       a = -7.600      CL = -0.3770
      Cm = -0.0144     CD =  0.11467   =>   CDf =  0.00696    CDp =  0.10771

 Side 1 forced transition at x/c =  1.0000   75
 Side 2  free  transition at x/c =  0.3198   46

   3   rms: 0.1171E+00   max: 0.8080E+00   D at   46  2
       a = -7.600      CL = -0.3052
      Cm = -0.0188     CD =  0.10950   =>   CDf =  0.00698    CDp =  0.10253

 Side 1 forced transition at x/c =  1.0000   75
 Side 2  free  transition at x/c =  0.3254   46

   4   rms: 0.4169E-01   max: 0.1090E+00   D at   46  2
       a = -7.600      CL = -0.3390
      Cm = -0.0208     CD =  0.10297   =>   CDf =  0.00736    CDp =  0.09561

 Side 1 forced transition at x/c =  1.0000   75
 Side 2  free  transition at x/c =  0.3254   46

   5   rms: 0.7264E-02   max: 0.4886E-01   T at   46  2
       a = -7.600      CL = -0.3388
      Cm = -0.0201     CD =  0.10398   =>   CDf =  0.00721    CDp =  0.09676

 Side 1 forced transition at x/c =  1.0000   75
 Side 2  free  transition at x/c =  0.3247   46

   6   rms: 0.6380E-03   max: -.9414E-02   D at   46  2
       a = -7.600      CL = -0.3389
      Cm = -0.0202     CD =  0.10396   =>   CDf =  0.00720    CDp =  0.09676

 Side 1 forced transition at x/c =  1.0000   75
 Side 2  free  transition at x/c =  0.3248   46

   7   rms: 0.8300E-04   max: 0.6164E-03   T at   46  2
       a = -7.600      CL = -0.3389
      Cm = -0.0202     CD =  0.10396   =>   CDf =  0.00720    CDp =  0.09676
 plradd ia,ip,cpol            7          74  3.68794217E-03

 Point added to stored polar  1
 Save file unspecified or not available
 Dump file unspecified or not available

.OPERva   c>  
.OPERva   c>  
.OPERva   c>   Calculating wake trajectory ...
 Calculating source influence matrix ...

 Solving BL system ...

 Side 1 forced transition at x/c =  1.0000   75
 Side 2  free  transition at x/c =  0.3248   46

   1   rms: 0.9531E-01   max: -.6057E+00   T at   46  2   RLX: 0.825
       a = -7.200      CL = -0.4046
      Cm = -0.0157     CD =  0.10576   =>   CDf =  0.00720    CDp =  0.09856

 Side 1 forced transition at x/c =  1.0000   75
 Side 2  free  transition at x/c =  0.3206   46

   2   rms: 0.6740E-01   max: -.4376E+00   D at   46  2
       a = -7.200      CL = -0.3771
      Cm = -0.0124     CD =  0.10803   =>   CDf =  0.00688    CDp =  0.10115

 Side 1 forced transition at x/c =  1.0000   75
 Side 2  free  transition at x/c =  0.3373   47

   3   rms: 0.9580E-01   max: 0.7370E+00   D at   47  2
       a = -7.200      CL = -0.3238
      Cm = -0.0149     CD =  0.10547   =>   CDf =  0.00687    CDp =  0.09860

 Side 1 forced transition at x/c =  1.0000   75
 Side 2  free  transition at x/c =  0.3398   47

   4   rms: 0.2825E-01   max: -.1806E+00   D at   47  2
       a = -7.200      CL = -0.3443
      Cm = -0.0167     CD =  0.09969   =>   CDf =  0.00713    CDp =  0.09256

 Side 1 forced transition at x/c =  1.0000   75
 Side 2  free  transition at x/c =  0.3411   47

   5   rms: 0.7281E-02   max: -.1110E+00   D at   47  2
       a = -7.200      CL = -0.3500
      Cm = -0.0160     CD =  0.10085   =>   CDf =  0.00705    CDp =  0.09379

 Side 1 forced transition at x/c =  1.0000   75
 Side 2  free  transition at x/c =  0.3416   47

   6   rms: 0.2116E-02   max: -.1411E-01   D at   47  2
       a = -7.200      CL = -0.3490
      Cm = -0.0159     CD =  0.10094   =>   CDf =  0.00703    CDp =  0.09392

 Side 1 forced transition at x/c =  1.0000   75
 Side 2  free  transition at x/c =  0.3418   47

   7   rms: 0.4436E-03   max: -.3080E-02   T at   47  2
       a = -7.200      CL = -0.3491
      Cm = -0.0160     CD =  0.10081   =>   CDf =  0.00703    CDp =  0.09378

 Side 1 forced transition at x/c =  1.0000   75
 Side 2  free  transition at x/c =  0.3418   47

   8   rms: 0.3040E-04   max: 0.2224E-03   T at   47  2
       a = -7.200      CL = -0.3491
      Cm = -0.0160     CD =  0.10082   =>   CDf =  0.00703    CDp =  0.09379
 plradd ia,ip,cpol            8          74  3.68794217E-03

 Point added to stored polar  1
 Save file unspecified or not available
 Dump file unspecified or not available

.OPERva   c>  
.OPERva   c>  
.OPERva   c>   Calculating wake trajectory ...
 Calculating source influence matrix ...

 Solving BL system ...

 Side 1 forced transition at x/c =  1.0000   75
 Side 2  free  transition at x/c =  0.3418   47

   1   rms: 0.8415E-01   max: -.4922E+00   T at   47  2
       a = -6.800      CL = -0.4269
      Cm = -0.0092     CD =  0.10214   =>   CDf =  0.00703    CDp =  0.09511

 Side 1 forced transition at x/c =  1.0000   75
 Side 2  free  transition at x/c =  0.3378   47

   2   rms: 0.6886E-01   max: -.4248E+00   D at   47  2
       a = -6.800      CL = -0.3904
      Cm = -0.0083     CD =  0.10476   =>   CDf =  0.00668    CDp =  0.09808

 Side 1 forced transition at x/c =  1.0000   75
 Side 2  free  transition at x/c =  0.3556   48

   3   rms: 0.1010E+00   max: 0.8166E+00   D at   48  2
       a = -6.800      CL = -0.3461
      Cm = -0.0085     CD =  0.10404   =>   CDf =  0.00667    CDp =  0.09737

 Side 1 forced transition at x/c =  1.0000   76
 Side 2  free  transition at x/c =  0.3592   47
 idif Ue xi dudx           1  0.12399394      3.19361687E-03   38.825554    
 Uenew xinew           2  1.74211729E-02  4.48703766E-04

   4   rms: 0.3668E-01   max: 0.2750E+00   D at    2  1
       a = -6.800      CL = -0.3727
      Cm = -0.0108     CD =  0.09807   =>   CDf =  0.00696    CDp =  0.09111

 Side 1 forced transition at x/c =  1.0000   75
 Side 2  free  transition at x/c =  0.3581   48

   5   rms: 0.1053E-01   max: -.9751E-01   D at   48  2
       a = -6.800      CL = -0.3690
      Cm = -0.0104     CD =  0.09909   =>   CDf =  0.00682    CDp =  0.09227

 Side 1 forced transition at x/c =  1.0000   75
 Side 2  free  transition at x/c =  0.3593   48

   6   rms: 0.2843E-02   max: -.3035E-01   D at    4  2
       a = -6.800      CL = -0.3699
      Cm = -0.0106     CD =  0.09853   =>   CDf =  0.00683    CDp =  0.09170

 Side 1 forced transition at x/c =  1.0000   75
 Side 2  free  transition at x/c =  0.3593   48

   7   rms: 0.2279E-03   max: -.1090E-02   D at  101  2
       a = -6.800      CL = -0.3698
      Cm = -0.0106     CD =  0.09860   =>   CDf =  0.00683    CDp =  0.09177

 Side 1 forced transition at x/c =  1.0000   75
 Side 2  free  transition at x/c =  0.3593   48

   8   rms: 0.1867E-04   max: -.1177E-03   T at   48  2
       a = -6.800      CL = -0.3698
      Cm = -0.0106     CD =  0.09860   =>   CDf =  0.00683    CDp =  0.09177
 plradd ia,ip,cpol            9          74  3.68794217E-03

 Point added to stored polar  1
 Save file unspecified or not available
 Dump file unspecified or not available

.OPERva   c>  
.OPERva   c>  
.OPERva   c>   Calculating wake trajectory ...
 Calculating source influence matrix ...

 Solving BL system ...

 Side 1 forced transition at x/c =  1.0000   75
 Side 2  free  transition at x/c =  0.3593   48

   1   rms: 0.7640E-01   max: -.3264E+00   T at   48  2
       a = -6.400      CL = -0.4489
      Cm = -0.0022     CD =  0.09946   =>   CDf =  0.00683    CDp =  0.09263

 Side 1 forced transition at x/c =  1.0000   75
 Side 2  free  transition at x/c =  0.3574   48

   2   rms: 0.4624E-01   max: -.2805E+00   D at   48  2
       a = -6.400      CL = -0.4203
      Cm = -0.0052     CD =  0.10038   =>   CDf =  0.00649    CDp =  0.09389

 Side 1 forced transition at x/c =  1.0000   75
 Side 2  free  transition at x/c =  0.3789   50

   3   rms: 0.1211E+00   max: 0.8060E+00   T at   50  2
       a = -6.400      CL = -0.4626
      Cm = -0.0067     CD =  0.10571   =>   CDf =  0.00648    CDp =  0.09923

 Side 1 forced transition at x/c =  1.0000   75
 Side 2  free  transition at x/c =  0.3701   49

   4   rms: 0.2094E+00   max: 0.9911E+00   T at   49  2
       a = -6.400      CL = -0.3865
      Cm =  0.0104     CD =  0.10732   =>   CDf =  0.00637    CDp =  0.10095

 Side 1 forced transition at x/c =  1.0000   76
 Side 2  free  transition at x/c =  0.3573   47
 idif Ue xi dudx           1  0.11880428      3.07714939E-03   38.608551    
 Uenew xinew           2  1.28271617E-02  3.32236290E-04

   5   rms: 0.8798E-01   max: -.6748E+00   T at   47  2   RLX: 0.741
       a = -6.400      CL = -0.3949
      Cm = -0.0037     CD =  0.09699   =>   CDf =  0.00675    CDp =  0.09024

 Side 1 forced transition at x/c =  1.0000   75
 Side 2  free  transition at x/c =  0.3553   48

   6   rms: 0.3033E-01   max: -.4462E+00   D at   48  2
       a = -6.400      CL = -0.4068
      Cm = -0.0060     CD =  0.09767   =>   CDf =  0.00663    CDp =  0.09104

 Side 1 forced transition at x/c =  1.0000   75
 Side 2  free  transition at x/c =  0.3836   50

   7   rms: 0.1407E+00   max: 0.9640E+00   D at   50  2
       a = -6.400      CL = -0.4618
      Cm =  0.0005     CD =  0.10511   =>   CDf =  0.00654    CDp =  0.09857

 Side 1 forced transition at x/c =  1.0000   75
 Side 2  free  transition at x/c =  0.3567   48

   8   rms: 0.8834E-01   max: -.6411E+00   T at   48  2   RLX: 0.780
       a = -6.400      CL = -0.4206
      Cm = -0.0019     CD =  0.09714   =>   CDf =  0.00638    CDp =  0.09076

 Side 1 forced transition at x/c =  1.0000   75
 Side 2  free  transition at x/c =  0.3552   48

   9   rms: 0.3660E-01   max: -.4337E+00   D at   48  2
       a = -6.400      CL = -0.3997
      Cm = -0.0058     CD =  0.09853   =>   CDf =  0.00654    CDp =  0.09200

 Side 1 forced transition at x/c =  1.0000   75
 Side 2  free  transition at x/c =  0.3838   50

  10   rms: 0.1297E+00   max: 0.9556E+00   D at   50  2
       a = -6.400      CL = -0.4509
      Cm =  0.0003     CD =  0.10449   =>   CDf =  0.00655    CDp =  0.09793

 Side 1 forced transition at x/c =  1.0000   75
 Side 2  free  transition at x/c =  0.3581   48

  11   rms: 0.7394E-01   max: 0.5805E+00   T at   49  2   RLX: 0.908
       a = -6.400      CL = -0.4208
      Cm = -0.0045     CD =  0.09913   =>   CDf =  0.00642    CDp =  0.09272

 Side 1 forced transition at x/c =  1.0000   75
 Side 2  free  transition at x/c =  0.3553   48

  12   rms: 0.4097E-01   max: -.4371E+00   D at   48  2
       a = -6.400      CL = -0.4066
      Cm = -0.0053     CD =  0.09950   =>   CDf =  0.00652    CDp =  0.09298

 Side 1 forced transition at x/c =  1.0000   75
 Side 2  free  transition at x/c =  0.3818   50

  13   rms: 0.1154E+00   max: 0.8094E+00   D at   50  2
       a = -6.400      CL = -0.4462
      Cm = -0.0019     CD =  0.10402   =>   CDf =  0.00652    CDp =  0.09750

 Side 1 forced transition at x/c =  1.0000   75
 Side 2  free  transition at x/c =  0.3624   49

  14   rms: 0.1314E+00   max: -.7728E+00   T at   49  2   RLX: 0.647
       a = -6.400      CL = -0.3880
      Cm =  0.0006     CD =  0.09344   =>   CDf =  0.00640    CDp =  0.08704

 Side 1 forced transition at x/c =  1.0000   76
 Side 2  free  transition at x/c =  0.3683   48

  15   rms: 0.4034E-01   max: -.4496E+00   D at   48  2
       a = -6.400      CL = -0.3569
      Cm = -0.0079     CD =  0.09363   =>   CDf =  0.00669    CDp =  0.08694

 Side 1 forced transition at x/c =  1.0000   76
 Side 2  free  transition at x/c =  0.3887   49

  16   rms: 0.5470E-01   max: 0.5823E+00   D at   49  2
       a = -6.400      CL = -0.3703
      Cm = -0.0039     CD =  0.09781   =>   CDf =  0.00674    CDp =  0.09107

 Side 1 forced transition at x/c =  1.0000   76
 Side 2  free  transition at x/c =  0.3760   48
 idif Ue xi dudx           1  0.11613519      2.98130512E-03   38.954479    
 Uenew xinew           2  9.20852832E-03  2.36392021E-04

  17   rms: 0.3471E-01   max: -.2481E+00   D at   49  2
       a = -6.400      CL = -0.3913
      Cm = -0.0053     CD =  0.09579   =>   CDf =  0.00675    CDp =  0.08903

 Side 1 forced transition at x/c =  1.0000   75
 Side 2  free  transition at x/c =  0.3767   49

  18   rms: 0.8167E-02   max: -.4110E-01   D at   49  2
       a = -6.400      CL = -0.3977
      Cm = -0.0045     CD =  0.09677   =>   CDf =  0.00663    CDp =  0.09013

 Side 1 forced transition at x/c =  1.0000   75
 Side 2  free  transition at x/c =  0.3765   49

  19   rms: 0.3351E-02   max: -.1654E-01   D at   49  2
       a = -6.400      CL = -0.3965
      Cm = -0.0045     CD =  0.09687   =>   CDf =  0.00661    CDp =  0.09027

 MRCHDU: Convergence failed at  49  side 2    Res =  0.1472E-03
 Side 1 forced transition at x/c =  1.0000   75
 Side 2  free  transition at x/c =  0.3768   49

  20   rms: 0.5287E-03   max: -.2093E-02   T at   49  2
       a = -6.400      CL = -0.3967
      Cm = -0.0046     CD =  0.09673   =>   CDf =  0.00661    CDp =  0.09012

 Side 1 forced transition at x/c =  1.0000   75
 Side 2  free  transition at x/c =  0.3768   49

  21   rms: 0.6777E-04   max: 0.3661E-03   T at   49  2
       a = -6.400      CL = -0.3967
      Cm = -0.0046     CD =  0.09674   =>   CDf =  0.00661    CDp =  0.09013
 plradd ia,ip,cpol           10          74  3.68794217E-03

 Point added to stored polar  1
 Save file unspecified or not available
 Dump file unspecified or not available

.OPERva   c>  
.OPERva   c>  
.OPERva   c>   Calculating wake trajectory ...
 Calculating source influence matrix ...

 Solving BL system ...

 Side 1 forced transition at x/c =  1.0000   75
 Side 2  free  transition at x/c =  0.3768   49

   1   rms: 0.9210E-01   max: -.3579E+00   T at   49  2
       a = -6.000      CL = -0.4802
      Cm =  0.0001     CD =  0.09740   =>   CDf =  0.00661    CDp =  0.09079

 Side 1 forced transition at x/c =  1.0000   75
 Side 2  free  transition at x/c =  0.3746   49

   2   rms: 0.6575E-01   max: -.3076E+00   D at   49  2
       a = -6.000      CL = -0.4408
      Cm = -0.0014     CD =  0.09871   =>   CDf =  0.00629    CDp =  0.09242

 Side 1 forced transition at x/c =  1.0000   75
 Side 2  free  transition at x/c =  0.4103   51

   3   rms: 0.9170E+00   max: 0.5763E+01   T at   51  2   RLX: 0.152
       a = -6.000      CL = -0.3948
      Cm =  0.0143     CD =  0.08658   =>   CDf =  0.00632    CDp =  0.08026

 Side 1 forced transition at x/c =  1.0000   76
 Side 2  free  transition at x/c =  0.3745   48

   4   rms: 0.1224E+00   max: -.1247E+01   T at   48  2   RLX: 0.401
       a = -6.000      CL = -0.3883
      Cm =  0.0124     CD =  0.09273   =>   CDf =  0.00655    CDp =  0.08618

 Side 1 forced transition at x/c =  1.0000   76
 Side 2  free  transition at x/c =  0.3717   48

   5   rms: 0.6578E-01   max: -.4895E+00   D at   48  2
       a = -6.000      CL = -0.3686
      Cm = -0.0056     CD =  0.09034   =>   CDf =  0.00661    CDp =  0.08373

 Side 1 forced transition at x/c =  1.0000   76
 Side 2  free  transition at x/c =  0.4342   52
 idif Ue xi dudx           1  0.19249278      5.08379936E-03   37.863960    
 Uenew xinew           2  8.85594934E-02  2.33888626E-03

   6   rms: 0.2981E+00   max: 0.1608E+01   D at   52  2   RLX: 0.933
       a = -6.000      CL = -0.5381
      Cm =  0.0048     CD =  0.10100   =>   CDf =  0.00687    CDp =  0.09413

 MRCHDU: Convergence failed at  71  side 2    Res =  0.9796E+00
 MRCHDU: Convergence failed at  72  side 2    Res =  0.1232E+01
 MRCHDU: Convergence failed at  73  side 2    Res =  0.1725E+01
 MRCHDU: Convergence failed at  74  side 2    Res =  0.2474E+01
 MRCHDU: Convergence failed at  75  side 2    Res =  0.3965E+01
 MRCHDU: Convergence failed at  76  side 2    Res =  0.7672E+01
 MRCHDU: Convergence failed at  77  side 2    Res =  0.6963E+02
 MRCHDU: Convergence failed at  78  side 2    Res =  0.2162E+02
 MRCHDU: Convergence failed at  79  side 2    Res =  0.5808E+01
 MRCHDU: Convergence failed at  80  side 2    Res =  0.4333E+01
 MRCHDU: Convergence failed at  81  side 2    Res =  0.3736E+01
 MRCHDU: Convergence failed at  82  side 2    Res =  0.3354E+01
 MRCHDU: Convergence failed at  83  side 2    Res =  0.3107E+01
 MRCHDU: Convergence failed at  84  side 2    Res =  0.2948E+01
 MRCHDU: Convergence failed at  85  side 2    Res =  0.2841E+01
 MRCHDU: Convergence failed at  86  side 2    Res =  0.2779E+01
 MRCHDU: Convergence failed at  87  side 2    Res =  0.2798E+01
 Side 1 forced transition at x/c =  1.0000   75
 Side 2  free  transition at x/c =  0.3523   48

   7   rms: 0.2184E+00   max: -.1515E+01   T at   48  2   RLX: 0.330
       a = -6.000      CL = -0.5521
      Cm =  0.0409     CD =  0.07563   =>   CDf =  0.00609    CDp =  0.06954

 Side 1 forced transition at x/c =  1.0000   75
 Side 2  free  transition at x/c =  0.3532   48

   8   rms: 0.1198E+00   max: 0.6854E+00   D at   87  2   RLX: 0.850
       a = -6.000      CL = -0.4629
      Cm =  0.0250     CD =  0.09550   =>   CDf =  0.00629    CDp =  0.08921

 Side 1 forced transition at x/c =  1.0000   75
 Side 2  free  transition at x/c =  0.3697   49

   9   rms: 0.1031E+00   max: -.1647E+01   T at   49  2   RLX: 0.304
       a = -6.000      CL = -0.4066
      Cm =  0.0056     CD =  0.08602   =>   CDf =  0.00629    CDp =  0.07973

 Side 1 forced transition at x/c =  1.0000   76
 Side 2  free  transition at x/c =  0.3771   49
 idif Ue xi dudx           1  0.15608445      4.38714027E-03   35.577721    
 Uenew xinew           2  5.84267005E-02  1.64222717E-03

  10   rms: 0.1471E+01   max: 0.1400E+02   D at    2  1   RLX: 0.089
       a = -6.000      CL = -0.4874
      Cm =  0.0092     CD =  0.10162   =>   CDf =  0.00645    CDp =  0.09516

 Side 1 forced transition at x/c =  1.0000   75
 Side 2  free  transition at x/c =  0.3682   49

  11   rms: 0.1135E+00   max: -.7895E+00   T at   49  2   RLX: 0.633
       a = -6.000      CL = -0.4521
      Cm =  0.0071     CD =  0.09046   =>   CDf =  0.00616    CDp =  0.08430

 Side 1 forced transition at x/c =  1.0000   75
 Side 2  free  transition at x/c =  0.3703   49

  12   rms: 0.4647E-01   max: -.4556E+00   D at   49  2
       a = -6.000      CL = -0.4097
      Cm = -0.0017     CD =  0.09426   =>   CDf =  0.00631    CDp =  0.08795

 Side 1 forced transition at x/c =  1.0000   75
 Side 2  free  transition at x/c =  0.4161   52

  13   rms: 0.1656E+00   max: 0.1089E+01   D at   52  2
       a = -6.000      CL = -0.4825
      Cm =  0.0025     CD =  0.10207   =>   CDf =  0.00644    CDp =  0.09563

 Side 1 forced transition at x/c =  1.0000   75
 Side 2  free  transition at x/c =  0.3763   49

  14   rms: 0.1126E+00   max: 0.8935E+00   T at   51  2   RLX: 0.630
       a = -6.000      CL = -0.4622
      Cm =  0.0049     CD =  0.09433   =>   CDf =  0.00622    CDp =  0.08811

 Side 1 forced transition at x/c =  1.0000   75
 Side 2  free  transition at x/c =  0.3721   49

  15   rms: 0.7445E-01   max: -.4536E+00   D at   49  2
       a = -6.000      CL = -0.4127
      Cm = -0.0011     CD =  0.09808   =>   CDf =  0.00632    CDp =  0.09176

 Side 1 forced transition at x/c =  1.0000   75
 Side 2  free  transition at x/c =  0.4141   52

  16   rms: 0.1791E+00   max: 0.1035E+01   T at   52  2
       a = -6.000      CL = -0.4869
      Cm = -0.0005     CD =  0.10347   =>   CDf =  0.00644    CDp =  0.09703

 Side 1 forced transition at x/c =  1.0000   75
 Side 2  free  transition at x/c =  0.3816   50

  17   rms: 0.2072E+00   max: -.1336E+01   T at   50  2   RLX: 0.374
       a = -6.000      CL = -0.4472
      Cm =  0.0087     CD =  0.08640   =>   CDf =  0.00619    CDp =  0.08021

 Side 1 forced transition at x/c =  1.0000   75
 Side 2  free  transition at x/c =  0.3849   50

  18   rms: 0.7529E-01   max: -.5113E+00   D at   51  2   RLX: 0.978
       a = -6.000      CL = -0.3651
      Cm = -0.0019     CD =  0.09381   =>   CDf =  0.00635    CDp =  0.08746

 Side 1 forced transition at x/c =  1.0000   76
 Side 2  free  transition at x/c =  0.4137   51

  19   rms: 0.3160E+00   max: -.1978E+01   T at   51  2   RLX: 0.253
       a = -6.000      CL = -0.2756
      Cm = -0.0154     CD =  0.08580   =>   CDf =  0.00658    CDp =  0.07922

 Side 1 forced transition at x/c =  1.0000   76
 Side 2  free  transition at x/c =  0.4278   51

  20   rms: 0.5040E-01   max: 0.5713E+00   T at   51  2
       a = -6.000      CL = -0.3191
      Cm = -0.0050     CD =  0.08542   =>   CDf =  0.00689    CDp =  0.07853

 Side 1 forced transition at x/c =  1.0000   76
 Side 2  free  transition at x/c =  0.4163   51

  21   rms: 0.6589E-01   max: 0.4954E+00   T at   51  2
       a = -6.000      CL = -0.3781
      Cm = -0.0017     CD =  0.08913   =>   CDf =  0.00680    CDp =  0.08233

 Side 1 forced transition at x/c =  1.0000   76
 Side 2  free  transition at x/c =  0.4127   51

  22   rms: 0.1242E+00   max: -.8440E+00   T at   51  2   RLX: 0.592
       a = -6.000      CL = -0.3121
      Cm = -0.0062     CD =  0.08725   =>   CDf =  0.00658    CDp =  0.08067

 Side 1 forced transition at x/c =  1.0000   76
 Side 2  free  transition at x/c =  0.4194   51

  23   rms: 0.4683E-01   max: 0.3371E+00   T at   51  2
       a = -6.000      CL = -0.3425
      Cm = -0.0040     CD =  0.08653   =>   CDf =  0.00683    CDp =  0.07970

 Side 1 forced transition at x/c =  1.0000   76
 Side 2  free  transition at x/c =  0.4148   51
 idif Ue xi dudx           1  0.12717512      3.27837467E-03   38.792126    
 Uenew xinew           2  2.06941087E-02  5.33461571E-04

  24   rms: 0.1028E+00   max: 0.8906E+00   T at   51  2
       a = -6.000      CL = -0.4423
      Cm =  0.0035     CD =  0.09451   =>   CDf =  0.00675    CDp =  0.08776

 Side 1 forced transition at x/c =  1.0000   75
 Side 2  free  transition at x/c =  0.3917   50

  25   rms: 0.5798E-01   max: -.4784E+00   D at   51  2
       a = -6.000      CL = -0.4110
      Cm = -0.0005     CD =  0.09586   =>   CDf =  0.00637    CDp =  0.08949

 Side 1 forced transition at x/c =  1.0000   76
 Side 2  free  transition at x/c =  0.3899   49
 idif Ue xi dudx           1  0.10907767      2.74622440E-03   39.719139    
 Uenew xinew           2  5.20837930E-05  1.31130219E-06

  26   rms: 0.2306E-01   max: -.3548E+00   D at   49  2
       a = -6.000      CL = -0.4121
      Cm = -0.0001     CD =  0.09473   =>   CDf =  0.00647    CDp =  0.08826

 Side 1 forced transition at x/c =  1.0000   75
 Side 2  free  transition at x/c =  0.4048   51

  27   rms: 0.1559E+00   max: 0.2251E+01   D at    2  2   RLX: 0.666
       a = -6.000      CL = -0.4065
      Cm =  0.0015     CD =  0.09292   =>   CDf =  0.00641    CDp =  0.08650

 Side 1 forced transition at x/c =  1.0000   75
 Side 2  free  transition at x/c =  0.3934   50

  28   rms: 0.4153E-01   max: -.2084E+00   T at   50  2
       a = -6.000      CL = -0.4282
      Cm = -0.0005     CD =  0.09465   =>   CDf =  0.00644    CDp =  0.08821

 Side 1 forced transition at x/c =  1.0000   75
 Side 2  free  transition at x/c =  0.3929   50

  29   rms: 0.1913E-01   max: -.1606E+00   D at   50  2
       a = -6.000      CL = -0.4258
      Cm =  0.0004     CD =  0.09586   =>   CDf =  0.00639    CDp =  0.08946

 Side 1 forced transition at x/c =  1.0000   75
 Side 2  free  transition at x/c =  0.4019   51

  30   rms: 0.1005E+00   max: 0.6044E+00   D at   51  2
       a = -6.000      CL = -0.4209
      Cm =  0.0069     CD =  0.09919   =>   CDf =  0.00635    CDp =  0.09284

 Side 1 forced transition at x/c =  1.0000   76
 Side 2  free  transition at x/c =  0.3877   49

  31   rms: 0.5337E-01   max: -.7111E+00   D at    2  1   RLX: 0.703
       a = -6.000      CL = -0.4082
      Cm =  0.0023     CD =  0.09197   =>   CDf =  0.00642    CDp =  0.08555

 Side 1 forced transition at x/c =  1.0000   76
 Side 2  free  transition at x/c =  0.3891   49

  32   rms: 0.2221E-01   max: -.3631E+00   D at   49  2
       a = -6.000      CL = -0.4033
      Cm = -0.0007     CD =  0.09359   =>   CDf =  0.00647    CDp =  0.08712

 Side 1 forced transition at x/c =  1.0000   76
 Side 2  free  transition at x/c =  0.4066   50

  33   rms: 0.9470E-01   max: 0.7683E+00   D at   50  2
       a = -6.000      CL = -0.4090
      Cm =  0.0060     CD =  0.09884   =>   CDf =  0.00646    CDp =  0.09238

 Side 1 forced transition at x/c =  1.0000   76
 Side 2  free  transition at x/c =  0.3891   49

  34   rms: 0.3634E-01   max: -.5465E+00   T at   49  2   RLX: 0.915
       a = -6.000      CL = -0.4018
      Cm =  0.0000     CD =  0.09312   =>   CDf =  0.00646    CDp =  0.08666

 Side 1 forced transition at x/c =  1.0000   76
 Side 2  free  transition at x/c =  0.3887   49

  35   rms: 0.2143E-01   max: -.4142E+00   D at   49  2
       a = -6.000      CL = -0.4046
      Cm = -0.0005     CD =  0.09395   =>   CDf =  0.00649    CDp =  0.08746

 Side 1 forced transition at x/c =  1.0000   76
 Side 2  free  transition at x/c =  0.4061   50

  36   rms: 0.9267E-01   max: 0.7484E+00   D at   50  2
       a = -6.000      CL = -0.4071
      Cm =  0.0058     CD =  0.09863   =>   CDf =  0.00645    CDp =  0.09218

 Side 1 forced transition at x/c =  1.0000   76
 Side 2  free  transition at x/c =  0.3898   49

  37   rms: 0.3711E-01   max: -.4978E+00   T at   49  2
       a = -6.000      CL = -0.4048
      Cm = -0.0007     CD =  0.09358   =>   CDf =  0.00647    CDp =  0.08711

 Side 1 forced transition at x/c =  1.0000   76
 Side 2  free  transition at x/c =  0.3890   49

  38   rms: 0.2165E-01   max: -.4062E+00   D at   49  2
       a = -6.000      CL = -0.4079
      Cm = -0.0003     CD =  0.09435   =>   CDf =  0.00648    CDp =  0.08787

 Side 1 forced transition at x/c =  1.0000   76
 Side 2  free  transition at x/c =  0.4055   50

  39   rms: 0.9381E-01   max: 0.7244E+00   D at   50  2
       a = -6.000      CL = -0.4084
      Cm =  0.0061     CD =  0.09869   =>   CDf =  0.00644    CDp =  0.09225

 Side 1 forced transition at x/c =  1.0000   76
 Side 2  free  transition at x/c =  0.3894   49

  40   rms: 0.3645E-01   max: -.5207E+00   T at   49  2   RLX: 0.960
       a = -6.000      CL = -0.4038
      Cm = -0.0004     CD =  0.09332   =>   CDf =  0.00647    CDp =  0.08686

 Side 1 forced transition at x/c =  1.0000   76
 Side 2  free  transition at x/c =  0.3889   49

  41   rms: 0.2147E-01   max: -.4098E+00   D at   49  2
       a = -6.000      CL = -0.4061
      Cm = -0.0004     CD =  0.09414   =>   CDf =  0.00648    CDp =  0.08766

 Side 1 forced transition at x/c =  1.0000   76
 Side 2  free  transition at x/c =  0.4059   50

  42   rms: 0.9392E-01   max: 0.7418E+00   D at   50  2
       a = -6.000      CL = -0.4082
      Cm =  0.0060     CD =  0.09872   =>   CDf =  0.00645    CDp =  0.09228

 Side 1 forced transition at x/c =  1.0000   76
 Side 2  free  transition at x/c =  0.3894   49

  43   rms: 0.3641E-01   max: -.5219E+00   T at   49  2   RLX: 0.958
       a = -6.000      CL = -0.4035
      Cm = -0.0003     CD =  0.09333   =>   CDf =  0.00647    CDp =  0.08687

 Side 1 forced transition at x/c =  1.0000   76
 Side 2  free  transition at x/c =  0.3889   49

  44   rms: 0.2139E-01   max: -.4101E+00   D at   49  2
       a = -6.000      CL = -0.4063
      Cm = -0.0003     CD =  0.09414   =>   CDf =  0.00649    CDp =  0.08766

 Side 1 forced transition at x/c =  1.0000   76
 Side 2  free  transition at x/c =  0.4058   50

  45   rms: 0.9271E-01   max: 0.7332E+00   D at   50  2
       a = -6.000      CL = -0.4071
      Cm =  0.0059     CD =  0.09861   =>   CDf =  0.00645    CDp =  0.09216

 Side 1 forced transition at x/c =  1.0000   76
 Side 2  free  transition at x/c =  0.3898   49

  46   rms: 0.3716E-01   max: -.4946E+00   T at   49  2
       a = -6.000      CL = -0.4053
      Cm = -0.0007     CD =  0.09357   =>   CDf =  0.00647    CDp =  0.08710

 Side 1 forced transition at x/c =  1.0000   76
 Side 2  free  transition at x/c =  0.3891   49

  47   rms: 0.2160E-01   max: -.4031E+00   D at   49  2
       a = -6.000      CL = -0.4080
      Cm = -0.0003     CD =  0.09437   =>   CDf =  0.00648    CDp =  0.08789

 Side 1 forced transition at x/c =  1.0000   76
 Side 2  free  transition at x/c =  0.4055   50

  48   rms: 0.9418E-01   max: 0.7253E+00   D at   50  2
       a = -6.000      CL = -0.4087
      Cm =  0.0062     CD =  0.09872   =>   CDf =  0.00644    CDp =  0.09228

 Side 1 forced transition at x/c =  1.0000   76
 Side 2  free  transition at x/c =  0.3893   49

  49   rms: 0.3622E-01   max: -.5278E+00   T at   49  2   RLX: 0.947
       a = -6.000      CL = -0.4034
      Cm = -0.0002     CD =  0.09324   =>   CDf =  0.00646    CDp =  0.08678

 Side 1 forced transition at x/c =  1.0000   76
 Side 2  free  transition at x/c =  0.3888   49

  50   rms: 0.2140E-01   max: -.4104E+00   D at   49  2
       a = -6.000      CL = -0.4058
      Cm = -0.0004     CD =  0.09409   =>   CDf =  0.00649    CDp =  0.08760
 VISCAL:  Convergence failed

.OPERva   c>  
.OPERva   c>  
.OPERva   c>   Calculating wake trajectory ...
 Calculating source influence matrix ...

 Solving BL system ...

 Side 1 forced transition at x/c =  1.0000   76
 Side 2  free  transition at x/c =  0.4059   50

   1   rms: 0.9042E-01   max: -.7030E+00   T at   50  2   RLX: 0.711
       a = -5.600      CL = -0.3925
      Cm =  0.0045     CD =  0.09019   =>   CDf =  0.00645    CDp =  0.08374

 Side 1 forced transition at x/c =  1.0000   76
 Side 2  free  transition at x/c =  0.4108   51

   2   rms: 0.9911E+00   max: -.6620E+01   T at   51  2   RLX: 0.076
       a = -5.600      CL = -0.3416
      Cm =  0.0048     CD =  0.08764   =>   CDf =  0.00642    CDp =  0.08122

 Side 1 forced transition at x/c =  1.0000   76
 Side 2  free  transition at x/c =  0.4187   51

   3   rms: 0.6993E-01   max: -.1039E+01   T at   51  2   RLX: 0.481
       a = -5.600      CL = -0.3480
      Cm =  0.0051     CD =  0.08836   =>   CDf =  0.00665    CDp =  0.08171

 Side 1 forced transition at x/c =  1.0000   76
 Side 2  free  transition at x/c =  0.4209   51

   4   rms: 0.5868E-01   max: -.4448E+00   D at   51  2
       a = -5.600      CL = -0.3762
      Cm =  0.0030     CD =  0.08652   =>   CDf =  0.00663    CDp =  0.07989

 Side 1 forced transition at x/c =  1.0000   76
 Side 2  free  transition at x/c =  0.4411   52

   5   rms: 0.7109E-01   max: 0.7067E+00   D at   52  2
       a = -5.600      CL = -0.4062
      Cm =  0.0083     CD =  0.09318   =>   CDf =  0.00646    CDp =  0.08671

 Side 1 forced transition at x/c =  1.0000   76
 Side 2  free  transition at x/c =  0.4209   51

   6   rms: 0.2866E-01   max: -.4664E+00   T at   51  2
       a = -5.600      CL = -0.3937
      Cm =  0.0047     CD =  0.08897   =>   CDf =  0.00636    CDp =  0.08261

 Side 1 forced transition at x/c =  1.0000   76
 Side 2  free  transition at x/c =  0.4230   51

   7   rms: 0.2150E-01   max: -.3523E+00   D at   51  2
       a = -5.600      CL = -0.4065
      Cm =  0.0050     CD =  0.08938   =>   CDf =  0.00640    CDp =  0.08297

 Side 1 forced transition at x/c =  1.0000   76
 Side 2  free  transition at x/c =  0.4361   52

   8   rms: 0.5900E-01   max: 0.4688E+00   D at   52  2
       a = -5.600      CL = -0.4070
      Cm =  0.0084     CD =  0.09248   =>   CDf =  0.00634    CDp =  0.08614

 Side 1 forced transition at x/c =  1.0000   76
 Side 2  free  transition at x/c =  0.4239   51

   9   rms: 0.2453E-01   max: -.3136E+00   T at   51  2
       a = -5.600      CL = -0.4109
      Cm =  0.0054     CD =  0.08967   =>   CDf =  0.00635    CDp =  0.08332

 Side 1 forced transition at x/c =  1.0000   76
 Side 2  free  transition at x/c =  0.4255   51

  10   rms: 0.1321E-01   max: -.2129E+00   D at   51  2
       a = -5.600      CL = -0.4185
      Cm =  0.0056     CD =  0.09043   =>   CDf =  0.00635    CDp =  0.08408

 Side 1 forced transition at x/c =  1.0000   76
 Side 2  free  transition at x/c =  0.4340   52

  11   rms: 0.6033E-01   max: 0.3987E+00   D at   52  2
       a = -5.600      CL = -0.4152
      Cm =  0.0086     CD =  0.09281   =>   CDf =  0.00630    CDp =  0.08651

 Side 1 forced transition at x/c =  1.0000   76
 Side 2  free  transition at x/c =  0.4240   51

  12   rms: 0.2174E-01   max: -.3012E+00   T at   51  2
       a = -5.600      CL = -0.4133
      Cm =  0.0056     CD =  0.08998   =>   CDf =  0.00632    CDp =  0.08365

 Side 1 forced transition at x/c =  1.0000   76
 Side 2  free  transition at x/c =  0.4257   51

  13   rms: 0.1241E-01   max: -.2014E+00   D at   51  2
       a = -5.600      CL = -0.4188
      Cm =  0.0056     CD =  0.09048   =>   CDf =  0.00634    CDp =  0.08415

 Side 1 forced transition at x/c =  1.0000   76
 Side 2  free  transition at x/c =  0.4339   52

  14   rms: 0.5996E-01   max: 0.3945E+00   D at   52  2
       a = -5.600      CL = -0.4154
      Cm =  0.0086     CD =  0.09280   =>   CDf =  0.00630    CDp =  0.08650

 Side 1 forced transition at x/c =  1.0000   76
 Side 2  free  transition at x/c =  0.4241   51

  15   rms: 0.2160E-01   max: -.2978E+00   T at   51  2
       a = -5.600      CL = -0.4136
      Cm =  0.0056     CD =  0.09000   =>   CDf =  0.00632    CDp =  0.08367

 Side 1 forced transition at x/c =  1.0000   76
 Side 2  free  transition at x/c =  0.4257   51

  16   rms: 0.1231E-01   max: -.1982E+00   D at   51  2
       a = -5.600      CL = -0.4190
      Cm =  0.0056     CD =  0.09050   =>   CDf =  0.00634    CDp =  0.08416

 Side 1 forced transition at x/c =  1.0000   76
 Side 2  free  transition at x/c =  0.4339   52

  17   rms: 0.6004E-01   max: 0.3937E+00   D at   52  2
       a = -5.600      CL = -0.4156
      Cm =  0.0086     CD =  0.09280   =>   CDf =  0.00630    CDp =  0.08651

 Side 1 forced transition at x/c =  1.0000   76
 Side 2  free  transition at x/c =  0.4241   51

  18   rms: 0.2159E-01   max: -.2976E+00   T at   51  2
       a = -5.600      CL = -0.4136
      Cm =  0.0056     CD =  0.09000   =>   CDf =  0.00632    CDp =  0.08368

 Side 1 forced transition at x/c =  1.0000   76
 Side 2  free  transition at x/c =  0.4257   51

  19   rms: 0.1230E-01   max: -.1979E+00   D at   51  2
       a = -5.600      CL = -0.4190
      Cm =  0.0057     CD =  0.09050   =>   CDf =  0.00634    CDp =  0.08416

 Side 1 forced transition at x/c =  1.0000   76
 Side 2  free  transition at x/c =  0.4339   52

  20   rms: 0.6003E-01   max: 0.3935E+00   D at   52  2
       a = -5.600      CL = -0.4155
      Cm =  0.0086     CD =  0.09280   =>   CDf =  0.00630    CDp =  0.08650

 Side 1 forced transition at x/c =  1.0000   76
 Side 2  free  transition at x/c =  0.4241   51

  21   rms: 0.2159E-01   max: -.2963E+00   T at   51  2
       a = -5.600      CL = -0.4137
      Cm =  0.0056     CD =  0.09000   =>   CDf =  0.00632    CDp =  0.08368

 Side 1 forced transition at x/c =  1.0000   76
 Side 2  free  transition at x/c =  0.4257   51

  22   rms: 0.1226E-01   max: -.1970E+00   D at   51  2
       a = -5.600      CL = -0.4191
      Cm =  0.0057     CD =  0.09051   =>   CDf =  0.00634    CDp =  0.08417

 Side 1 forced transition at x/c =  1.0000   76
 Side 2  free  transition at x/c =  0.4339   52

  23   rms: 0.6007E-01   max: 0.3932E+00   D at   52  2
       a = -5.600      CL = -0.4156
      Cm =  0.0086     CD =  0.09281   =>   CDf =  0.00630    CDp =  0.08651

 Side 1 forced transition at x/c =  1.0000   76
 Side 2  free  transition at x/c =  0.4241   51

  24   rms: 0.2158E-01   max: -.2974E+00   T at   51  2
       a = -5.600      CL = -0.4136
      Cm =  0.0056     CD =  0.09001   =>   CDf =  0.00632    CDp =  0.08368

 Side 1 forced transition at x/c =  1.0000   76
 Side 2  free  transition at x/c =  0.4257   51

  25   rms: 0.1229E-01   max: -.1978E+00   D at   51  2
       a = -5.600      CL = -0.4190
      Cm =  0.0057     CD =  0.09050   =>   CDf =  0.00634    CDp =  0.08416

 Side 1 forced transition at x/c =  1.0000   76
[...]
 Side 2 forced transition at x/c =  1.0000   69

  38   rms: 0.6126E-01   max: 0.4249E+00   D at   46  1
       a = 18.000      CL =  0.6981
      Cm = -0.0710     CD =  0.21621   =>   CDf =  0.00731    CDp =  0.20889

 Side 1  free  transition at x/c =  0.2553   45
 Side 2 forced transition at x/c =  1.0000   69

  39   rms: 0.1532E-01   max: 0.6225E-01   T at   46  1
       a = 18.000      CL =  0.6975
      Cm = -0.0691     CD =  0.20492   =>   CDf =  0.00734    CDp =  0.19757

 Side 1  free  transition at x/c =  0.2590   46
 Side 2 forced transition at x/c =  1.0000   69

  40   rms: 0.6127E-01   max: 0.4250E+00   D at   46  1
       a = 18.000      CL =  0.6981
      Cm = -0.0710     CD =  0.21620   =>   CDf =  0.00731    CDp =  0.20889

 Side 1  free  transition at x/c =  0.2553   45
 Side 2 forced transition at x/c =  1.0000   69

  41   rms: 0.1531E-01   max: 0.6222E-01   T at   46  1
       a = 18.000      CL =  0.6975
      Cm = -0.0691     CD =  0.20492   =>   CDf =  0.00734    CDp =  0.19757

 Side 1  free  transition at x/c =  0.2590   46
 Side 2 forced transition at x/c =  1.0000   69

  42   rms: 0.6122E-01   max: 0.4248E+00   D at   46  1
       a = 18.000      CL =  0.6980
      Cm = -0.0710     CD =  0.21618   =>   CDf =  0.00731    CDp =  0.20887

 Side 1  free  transition at x/c =  0.2553   45
 Side 2 forced transition at x/c =  1.0000   69

  43   rms: 0.1532E-01   max: 0.6224E-01   T at   46  1
       a = 18.000      CL =  0.6975
      Cm = -0.0691     CD =  0.20490   =>   CDf =  0.00734    CDp =  0.19755

 Side 1  free  transition at x/c =  0.2590   46
 Side 2 forced transition at x/c =  1.0000   69

  44   rms: 0.6131E-01   max: 0.4252E+00   D at   46  1
       a = 18.000      CL =  0.6981
      Cm = -0.0710     CD =  0.21621   =>   CDf =  0.00731    CDp =  0.20890

 Side 1  free  transition at x/c =  0.2553   45
 Side 2 forced transition at x/c =  1.0000   69

  45   rms: 0.1530E-01   max: 0.6215E-01   T at   46  1
       a = 18.000      CL =  0.6975
      Cm = -0.0691     CD =  0.20492   =>   CDf =  0.00734    CDp =  0.19758

 Side 1  free  transition at x/c =  0.2590   46
 Side 2 forced transition at x/c =  1.0000   69

  46   rms: 0.6118E-01   max: 0.4243E+00   D at   46  1
       a = 18.000      CL =  0.6981
      Cm = -0.0710     CD =  0.21617   =>   CDf =  0.00731    CDp =  0.20885

 Side 1  free  transition at x/c =  0.2553   45
 Side 2 forced transition at x/c =  1.0000   69

  47   rms: 0.1528E-01   max: 0.6209E-01   T at   46  1
       a = 18.000      CL =  0.6975
      Cm = -0.0691     CD =  0.20492   =>   CDf =  0.00734    CDp =  0.19757

 Side 1  free  transition at x/c =  0.2590   46
 Side 2 forced transition at x/c =  1.0000   69

  48   rms: 0.6119E-01   max: 0.4246E+00   D at   46  1
       a = 18.000      CL =  0.6980
      Cm = -0.0710     CD =  0.21617   =>   CDf =  0.00731    CDp =  0.20886

 Side 1  free  transition at x/c =  0.2553   45
 Side 2 forced transition at x/c =  1.0000   69

  49   rms: 0.1531E-01   max: 0.6218E-01   T at   46  1
       a = 18.000      CL =  0.6975
      Cm = -0.0691     CD =  0.20489   =>   CDf =  0.00734    CDp =  0.19755

 Side 1  free  transition at x/c =  0.2590   46
 Side 2 forced transition at x/c =  1.0000   69

  50   rms: 0.6128E-01   max: 0.4252E+00   D at   46  1
       a = 18.000      CL =  0.6981
      Cm = -0.0710     CD =  0.21620   =>   CDf =  0.00731    CDp =  0.20889
 VISCAL:  Convergence failed

.OPERva   c>  
.OPERva   c>  
.OPERva   c>   Calculating wake trajectory ...
 Calculating source influence matrix ...

 Solving BL system ...

 Side 1  free  transition at x/c =  0.2553   45
 Side 2 forced transition at x/c =  1.0000   69

   1   rms: 0.6081E-01   max: 0.3169E+00   T at   45  1   RLX: 0.247
       a = 18.400      CL =  0.6914
      Cm = -0.0717     CD =  0.20338   =>   CDf =  0.00734    CDp =  0.19604

 Side 1  free  transition at x/c =  0.2544   45
 Side 2 forced transition at x/c =  1.0000   69

   2   rms: 0.4270E-01   max: 0.3376E+00   T at   45  1
       a = 18.400      CL =  0.6762
      Cm = -0.0719     CD =  0.20670   =>   CDf =  0.00734    CDp =  0.19936

 Side 1  free  transition at x/c =  0.2463   45
 Side 2 forced transition at x/c =  1.0000   69

   3   rms: 0.2534E-01   max: -.1980E+00   D at   45  1
       a = 18.400      CL =  0.6739
      Cm = -0.0707     CD =  0.19880   =>   CDf =  0.00733    CDp =  0.19146

 Side 1  free  transition at x/c =  0.2482   45
 Side 2 forced transition at x/c =  1.0000   69

   4   rms: 0.1074E-01   max: -.4931E-01   D at   89  2
       a = 18.400      CL =  0.6813
      Cm = -0.0713     CD =  0.20482   =>   CDf =  0.00733    CDp =  0.19749

 Side 1  free  transition at x/c =  0.2476   45
 Side 2 forced transition at x/c =  1.0000   69

   5   rms: 0.8240E-03   max: -.7872E-02   D at   90  2
       a = 18.400      CL =  0.6819
      Cm = -0.0714     CD =  0.20555   =>   CDf =  0.00732    CDp =  0.19824

 Side 1  free  transition at x/c =  0.2476   45
 Side 2 forced transition at x/c =  1.0000   69

   6   rms: 0.1438E-04   max: -.1015E-03   D at   90  2
       a = 18.400      CL =  0.6819
      Cm = -0.0714     CD =  0.20556   =>   CDf =  0.00732    CDp =  0.19824
 plradd ia,ip,cpol           63          92  1.47631322E-03

 Point added to stored polar  1
 Save file unspecified or not available
 Dump file unspecified or not available

.OPERva   c>  
.OPERva   c>  
.OPERva   c>   Calculating wake trajectory ...
 Calculating source influence matrix ...

 Solving BL system ...

 Side 1  free  transition at x/c =  0.2476   45
 Side 2 forced transition at x/c =  1.0000   69

   1   rms: 0.4460E-01   max: 0.8136E+00   T at   45  1   RLX: 0.244
       a = 18.800      CL =  0.6837
      Cm = -0.0717     CD =  0.20730   =>   CDf =  0.00731    CDp =  0.19999

 Side 1  free  transition at x/c =  0.2442   45
 Side 2 forced transition at x/c =  1.0000   69

   2   rms: 0.5620E-01   max: 0.7069E+00   T at   45  1
       a = 18.800      CL =  0.7041
      Cm = -0.0714     CD =  0.21249   =>   CDf =  0.00700    CDp =  0.20549

 Side 1  free  transition at x/c =  0.2378   45
 Side 2 forced transition at x/c =  1.0000   68

   3   rms: 0.2877E-01   max: 0.1930E+00   D at   46  1
       a = 18.800      CL =  0.6964
      Cm = -0.0730     CD =  0.21755   =>   CDf =  0.00722    CDp =  0.21034

 Side 1  free  transition at x/c =  0.2384   45
 Side 2 forced transition at x/c =  1.0000   68

   4   rms: 0.8660E-02   max: 0.4314E-01   D at   87  2
       a = 18.800      CL =  0.6925
      Cm = -0.0725     CD =  0.21262   =>   CDf =  0.00724    CDp =  0.20538

 Side 1  free  transition at x/c =  0.2388   45
 Side 2 forced transition at x/c =  1.0000   68

   5   rms: 0.1135E-02   max: 0.8675E-02   D at   88  2
       a = 18.800      CL =  0.6919
      Cm = -0.0724     CD =  0.21130   =>   CDf =  0.00725    CDp =  0.20405

 Side 1  free  transition at x/c =  0.2388   45
 Side 2 forced transition at x/c =  1.0000   68

   6   rms: 0.7755E-04   max: -.3401E-03   D at   76  2
       a = 18.800      CL =  0.6919
      Cm = -0.0724     CD =  0.21132   =>   CDf =  0.00725    CDp =  0.20407
 plradd ia,ip,cpol           64          93  1.47631322E-03

 Point added to stored polar  1
 Save file unspecified or not available
 Dump file unspecified or not available

.OPERva   c>  
.OPERva   c>  
.OPERva   c>   Calculating wake trajectory ...
 Calculating source influence matrix ...

 Solving BL system ...

 Side 1  free  transition at x/c =  0.2388   45
 Side 2 forced transition at x/c =  1.0000   68

   1   rms: 0.7448E-01   max: 0.8157E+00   T at   45  1   RLX: 0.236
       a = 19.200      CL =  0.6866
      Cm = -0.0731     CD =  0.21190   =>   CDf =  0.00725    CDp =  0.20466

 Side 1  free  transition at x/c =  0.2359   45
 Side 2 forced transition at x/c =  1.0000   68

   2   rms: 0.3106E-01   max: 0.6292E+00   T at   45  1
       a = 19.200      CL =  0.6877
      Cm = -0.0744     CD =  0.21408   =>   CDf =  0.00724    CDp =  0.20683

 Side 1  free  transition at x/c =  0.2266   45
 Side 2 forced transition at x/c =  1.0000   68

   3   rms: 0.4745E-01   max: -.2228E+00   D at   46  1
       a = 19.200      CL =  0.6815
      Cm = -0.0726     CD =  0.20158   =>   CDf =  0.00721    CDp =  0.19436

 Side 1  free  transition at x/c =  0.2283   45
 Side 2 forced transition at x/c =  1.0000   68

   4   rms: 0.2175E-01   max: -.9593E-01   D at   88  2
       a = 19.200      CL =  0.6936
      Cm = -0.0732     CD =  0.21207   =>   CDf =  0.00722    CDp =  0.20485

 Side 1  free  transition at x/c =  0.2281   45
 Side 2 forced transition at x/c =  1.0000   68

   5   rms: 0.4625E-02   max: -.2905E-01   D at   89  2
       a = 19.200      CL =  0.6968
      Cm = -0.0735     CD =  0.21510   =>   CDf =  0.00719    CDp =  0.20791

 Side 1  free  transition at x/c =  0.2280   45
 Side 2 forced transition at x/c =  1.0000   68

   6   rms: 0.3560E-03   max: -.2704E-02   D at   88  2
       a = 19.200      CL =  0.6971
      Cm = -0.0736     CD =  0.21537   =>   CDf =  0.00718    CDp =  0.20818

 Side 1  free  transition at x/c =  0.2280   45
 Side 2 forced transition at x/c =  1.0000   68

   7   rms: 0.2388E-04   max: -.1573E-03   D at   88  2
       a = 19.200      CL =  0.6971
      Cm = -0.0736     CD =  0.21539   =>   CDf =  0.00718    CDp =  0.20820
 plradd ia,ip,cpol           65          93  1.47631322E-03

 Point added to stored polar  1
 Save file unspecified or not available
 Dump file unspecified or not available

.OPERva   c>  
.OPERva   c>  
.OPERva   c>   Calculating wake trajectory ...
 Calculating source influence matrix ...

 Solving BL system ...

 Side 1  free  transition at x/c =  0.2280   45
 Side 2 forced transition at x/c =  1.0000   68

   1   rms: 0.8947E-01   max: 0.8937E+00   T at   45  1   RLX: 0.237
       a = 19.600      CL =  0.7034
      Cm = -0.0735     CD =  0.21807   =>   CDf =  0.00718    CDp =  0.21088

 Side 1  free  transition at x/c =  0.2259   45
 Side 2 forced transition at x/c =  1.0000   68

   2   rms: 0.1596E+00   max: 0.1105E+01   T at   45  1
       a = 19.600      CL =  0.7618
      Cm = -0.0719     CD =  0.23675   =>   CDf =  0.00684    CDp =  0.22991

 Side 1  free  transition at x/c =  0.2212   45
 Side 2 forced transition at x/c =  1.0000   67
 idif Ue xi dudx           2  0.16430143      7.13312626E-03   23.033579    
 Uenew xinew           3  7.98840448E-02  3.46815586E-03

   3   rms: 0.2605E+00   max: 0.1189E+01   D at   46  1
       a = 19.600      CL =  0.6327
      Cm = -0.0814     CD =  0.26869   =>   CDf =  0.00750    CDp =  0.26119

 Side 1  free  transition at x/c =  0.2189   43
 Side 2 forced transition at x/c =  1.0000   69

   4   rms: 0.1174E+00   max: 0.9808E+00   D at    2  2
       a = 19.600      CL =  0.6968
      Cm = -0.0754     CD =  0.21897   =>   CDf =  0.00705    CDp =  0.21192

 Side 1  free  transition at x/c =  0.2220   44
 Side 2 forced transition at x/c =  1.0000   68

   5   rms: 0.1309E-01   max: 0.1603E+00   D at    3  2
       a = 19.600      CL =  0.6968
      Cm = -0.0753     CD =  0.21920   =>   CDf =  0.00717    CDp =  0.21203

 Side 1  free  transition at x/c =  0.2210   44
 Side 2 forced transition at x/c =  1.0000   68

   6   rms: 0.3104E-02   max: -.3038E-01   D at    3  2
       a = 19.600      CL =  0.6969
      Cm = -0.0753     CD =  0.21912   =>   CDf =  0.00715    CDp =  0.21197

 Side 1  free  transition at x/c =  0.2210   44
 Side 2 forced transition at x/c =  1.0000   68

   7   rms: 0.1399E-03   max: -.7237E-03   D at   87  2
       a = 19.600      CL =  0.6970
      Cm = -0.0753     CD =  0.21922   =>   CDf =  0.00715    CDp =  0.21206

 Side 1  free  transition at x/c =  0.2210   44
 Side 2 forced transition at x/c =  1.0000   68

   8   rms: 0.8506E-05   max: -.8419E-04   D at   88  2
       a = 19.600      CL =  0.6970
      Cm = -0.0753     CD =  0.21923   =>   CDf =  0.00715    CDp =  0.21207
 plradd ia,ip,cpol           66          93  7.69379723E-04

 Point added to stored polar  1
 Save file unspecified or not available
 Dump file unspecified or not available

.OPERva   c>  
.OPERva   c>  
.OPERva   c>   Calculating wake trajectory ...
 Calculating source influence matrix ...

 Solving BL system ...

 Side 1  free  transition at x/c =  0.2210   44
 Side 2 forced transition at x/c =  1.0000   68

   1   rms: 0.4185E-01   max: 0.8501E+00   T at   44  1   RLX: 0.229
       a = 20.000      CL =  0.6960
      Cm = -0.0758     CD =  0.22063   =>   CDf =  0.00715    CDp =  0.21348

 Side 1  free  transition at x/c =  0.2180   44
 Side 2 forced transition at x/c =  1.0000   68

   2   rms: 0.3111E-01   max: 0.5895E+00   T at   44  1
       a = 20.000      CL =  0.7046
      Cm = -0.0766     CD =  0.22455   =>   CDf =  0.00714    CDp =  0.21741

 Side 1  free  transition at x/c =  0.2101   43
 Side 2 forced transition at x/c =  1.0000   68

   3   rms: 0.3357E-01   max: -.1517E+00   D at   45  1
       a = 20.000      CL =  0.7077
      Cm = -0.0749     CD =  0.21788   =>   CDf =  0.00711    CDp =  0.21077

 Side 1  free  transition at x/c =  0.2124   44
 Side 2 forced transition at x/c =  1.0000   68

   4   rms: 0.5027E-01   max: 0.3066E+00   T at   44  1
       a = 20.000      CL =  0.7265
      Cm = -0.0760     CD =  0.23530   =>   CDf =  0.00676    CDp =  0.22855

 Side 1  free  transition at x/c =  0.2106   44
 Side 2 forced transition at x/c =  1.0000   67
 idif Ue xi dudx           1  8.31446797E-02  3.87179852E-03   21.474434    
 Uenew xinew           2  4.44151694E-03  2.06828117E-04

   5   rms: 0.2901E-01   max: -.4153E+00   T at    2  1
       a = 20.000      CL =  0.7191
      Cm = -0.0760     CD =  0.23183   =>   CDf =  0.00734    CDp =  0.22449

 Side 1  free  transition at x/c =  0.2108   43
 Side 2 forced transition at x/c =  1.0000   68

   6   rms: 0.5083E-02   max: -.6383E-01   D at    3  1
       a = 20.000      CL =  0.7179
      Cm = -0.0756     CD =  0.22819   =>   CDf =  0.00708    CDp =  0.22111

 Side 1  free  transition at x/c =  0.2108   43
 Side 2 forced transition at x/c =  1.0000   68

   7   rms: 0.1818E-02   max: 0.2435E-01   D at    4  2
       a = 20.000      CL =  0.7180
      Cm = -0.0756     CD =  0.22812   =>   CDf =  0.00708    CDp =  0.22104

 Side 1  free  transition at x/c =  0.2108   43
 Side 2 forced transition at x/c =  1.0000   68

   8   rms: 0.1657E-04   max: -.1314E-03   D at   89  2
       a = 20.000      CL =  0.7180
      Cm = -0.0756     CD =  0.22814   =>   CDf =  0.00708    CDp =  0.22106
 plradd ia,ip,cpol           67          93  7.69379723E-04

 Point added to stored polar  1
 Save file unspecified or not available
 Dump file unspecified or not available

.OPERva   c>  
.OPERva   c>  
.OPERva   c>  
        airfoil                    Re           Mach       Ncrit  XtripT  XtripB     file
       ------------------------  ------------  ----------  -----  ------  ------    -------------------
 >  1  NACA 4412                 4.258e4       0.088        9.00   1.000   1.000    

Enter polar output filename   s>  
.OPERva   c>  
 ==============================================================
 Polar  1
  
       XFOIL         Version 6.99
  
 Calculated polar for: NACA 4412                                       
  
 1 1 Reynolds number fixed          Mach number fixed         
  
 xtrf =   1.000 (top)        1.000 (bottom)  
 Mach =   0.088     Re =     0.043 e 6     Ncrit =   9.000
  
   alpha    CL        CD       CDp       CM     Top_Xtr  Bot_Xtr
  ------ -------- --------- --------- -------- -------- --------
 -10.000  -0.3445   0.12982   0.12190  -0.0321   1.0000   0.2406
  -9.600  -0.3158   0.12152   0.11360  -0.0306   1.0000   0.2541
  -9.200  -0.3096   0.11668   0.10885  -0.0295   1.0000   0.2663
  -8.800  -0.3126   0.11297   0.10528  -0.0282   1.0000   0.2797
  -8.400  -0.3453   0.11317   0.10574  -0.0261   1.0000   0.2919
  -8.000  -0.3406   0.10838   0.10106  -0.0233   1.0000   0.3085
  -7.600  -0.3389   0.10396   0.09676  -0.0202   1.0000   0.3248
  -7.200  -0.3491   0.10082   0.09379  -0.0160   1.0000   0.3418
  -6.800  -0.3698   0.09860   0.09177  -0.0106   1.0000   0.3593
  -6.400  -0.3967   0.09674   0.09013  -0.0046   1.0000   0.3768
  -5.200  -0.3888   0.08440   0.07809   0.0114   1.0000   0.4729
  -4.000  -0.3725   0.05617   0.04877  -0.0376   1.0000   0.2193
  -3.600  -0.3229   0.04820   0.03980  -0.0463   1.0000   0.2086
  -3.200  -0.2851   0.04433   0.03553  -0.0482   1.0000   0.2144
  -2.800  -0.2409   0.04083   0.03123  -0.0513   1.0000   0.2258
  -2.400  -0.2025   0.03876   0.02878  -0.0524   1.0000   0.2435
  -2.000  -0.1660   0.03739   0.02718  -0.0531   1.0000   0.2669
  -1.600  -0.1287   0.03642   0.02594  -0.0538   1.0000   0.2980
  -1.200  -0.0922   0.03587   0.02522  -0.0543   1.0000   0.3405
  -0.800  -0.0290   0.03557   0.02502  -0.0591   0.9915   0.4261
  -0.400   0.0383   0.03409   0.02538  -0.0622   0.9757   0.7091
   0.000   0.1021   0.03507   0.02557  -0.0679   0.9532   1.0000
   0.400   0.1607   0.03693   0.02682  -0.0727   0.9328   1.0000
   0.800   0.2183   0.03883   0.02829  -0.0771   0.9139   1.0000
   1.200   0.2741   0.04075   0.02987  -0.0811   0.8959   1.0000
   1.600   0.3180   0.04259   0.03147  -0.0830   0.8779   1.0000
   2.000   0.3582   0.04450   0.03320  -0.0844   0.8608   1.0000
   2.400   0.3974   0.04651   0.03507  -0.0856   0.8442   1.0000
   2.800   0.4350   0.04860   0.03706  -0.0866   0.8277   1.0000
   3.200   0.4715   0.05081   0.03921  -0.0874   0.8118   1.0000
   3.600   0.5069   0.05314   0.04149  -0.0881   0.7962   1.0000
   4.000   0.5405   0.05557   0.04392  -0.0885   0.7803   1.0000
   4.400   0.5727   0.05813   0.04649  -0.0888   0.7645   1.0000
   4.800   0.6040   0.06083   0.04922  -0.0890   0.7488   1.0000
   5.200   0.6328   0.06367   0.05213  -0.0890   0.7329   1.0000
   5.600   0.6583   0.06668   0.05521  -0.0887   0.7164   1.0000
   6.000   0.6816   0.06987   0.05851  -0.0882   0.6999   1.0000
   6.400   0.7028   0.07327   0.06200  -0.0876   0.6833   1.0000
   6.800   0.7210   0.07685   0.06571  -0.0869   0.6662   1.0000
   7.200   0.7369   0.08062   0.06961  -0.0861   0.6485   1.0000
   7.600   0.7525   0.08450   0.07363  -0.0853   0.6298   1.0000
   8.000   0.8033   0.08686   0.07619  -0.0856   0.6037   1.0000
   8.400   0.8030   0.09155   0.08103  -0.0841   0.5845   1.0000
   8.800   0.8120   0.09589   0.08553  -0.0830   0.5627   1.0000
   9.200   0.8395   0.09905   0.08889  -0.0817   0.5342   1.0000
   9.600   0.8697   0.10174   0.09182  -0.0801   0.5034   1.0000
  10.000   0.8971   0.10428   0.09458  -0.0779   0.4716   1.0000
  10.400   0.9199   0.10686   0.09740  -0.0755   0.4392   1.0000
  10.800   0.9385   0.10961   0.10035  -0.0730   0.4065   1.0000
  11.200   0.9535   0.11259   0.10354  -0.0706   0.3739   1.0000
  11.600   1.0198   0.10688   0.09824  -0.0632   0.3307   1.0000
  12.000   0.9815   0.11877   0.11010  -0.0658   0.3110   1.0000
  12.400   0.9977   0.12157   0.11307  -0.0634   0.2823   1.0000
  12.800   0.9802   0.13114   0.12266  -0.0655   0.2652   1.0000
  13.200   1.2870   0.08098   0.07275  -0.0316   0.1777   1.0000
  13.600   1.2179   0.09526   0.08737  -0.0347   0.1804   1.0000
  15.600   0.6500   0.17559   0.16784  -0.0641   0.3273   1.0000
  16.000   0.6593   0.18077   0.17310  -0.0648   0.3144   1.0000
  16.400   0.6751   0.18736   0.17979  -0.0655   0.3008   1.0000
  16.800   0.6691   0.18900   0.18147  -0.0665   0.2882   1.0000
  17.200   0.6673   0.19240   0.18492  -0.0679   0.2784   1.0000
  17.600   0.6775   0.19805   0.19063  -0.0688   0.2688   1.0000
  18.400   0.6819   0.20556   0.19824  -0.0714   0.2476   1.0000
  18.800   0.6919   0.21132   0.20407  -0.0724   0.2388   1.0000
  19.200   0.6971   0.21539   0.20820  -0.0736   0.2280   1.0000
  19.600   0.6970   0.21923   0.21207  -0.0753   0.2210   1.0000
  20.000   0.7180   0.22814   0.22106  -0.0756   0.2108   1.0000

.OPERva   c>  
 XFOIL   c>  