xflr5 v6.32

 Calculated polar for: NACA 2412

 1 1 Reynolds number fixed          Mach number fixed         

 xtrf =   1.000 (top)        1.000 (bottom)
 Mach =   0.000     Re =     3.000 e 6     Ncrit =   9.000

  alpha     CL        CD       CDp       Cm    Top Xtr Bot Xtr   Cpmin    Chinge    XCp    
 ------- -------- --------- --------- -------- ------- ------- -------- --------- ---------
 -19.000  -1.0330   0.12393   0.12220  -0.0126  1.0000  0.0076  -10.1483   0.0000   0.2105
 -18.500  -1.1562   0.09479   0.09279  -0.0290  1.0000  0.0074  -11.6174   0.0000   0.1986
 -18.000  -1.2909   0.06566   0.06335  -0.0458  1.0000  0.0072  -13.0392   0.0000   0.1896
 -17.500  -1.3670   0.04437   0.04169  -0.0611  1.0000  0.0072  -13.7165   0.0000   0.1818
 -17.000  -1.3977   0.03301   0.03001  -0.0694  1.0000  0.0072  -13.7936   0.0000   0.1783
 -16.500  -1.4102   0.02735   0.02408  -0.0695  1.0000  0.0072  -13.6114   0.0000   0.1799
 -16.000  -1.4122   0.02415   0.02064  -0.0650  1.0000  0.0073  -13.3008   0.0000   0.1842
 -15.500  -1.3946   0.02174   0.01801  -0.0614  1.0000  0.0074  -12.8334   0.0000   0.1871
 -15.000  -1.3667   0.01974   0.01582  -0.0586  1.0000  0.0075  -12.2918   0.0000   0.1892
 -14.500  -1.3353   0.01809   0.01398  -0.0556  1.0000  0.0078  -11.7296   0.0000   0.1912
 -14.000  -1.3043   0.01668   0.01240  -0.0520  1.0000  0.0082  -11.1802   0.0000   0.1938
 -13.500  -1.2745   0.01543   0.01104  -0.0478  1.0000  0.0093  -10.6493   0.0000   0.1970
 -13.000  -1.2259   0.01443   0.01004  -0.0473  0.9992  0.0107  -10.0451   0.0000   0.1966
 -12.500  -1.1669   0.01371   0.00932  -0.0487  0.9978  0.0116  -9.3972   0.0000   0.1943
 -12.000  -1.1063   0.01312   0.00872  -0.0502  0.9962  0.0119  -8.7486   0.0000   0.1912
 -11.500  -1.0443   0.01259   0.00818  -0.0520  0.9947  0.0120  -8.1089   0.0000   0.1875
 -11.000  -0.9810   0.01214   0.00775  -0.0540  0.9936  0.0121  -7.4752   0.0000   0.1828
 -10.500  -0.9223   0.01124   0.00673  -0.0552  0.9909  0.0129  -6.9290   0.0000   0.1786
 -10.000  -0.8661   0.01045   0.00586  -0.0556  0.9852  0.0140  -6.4169   0.0000   0.1748
  -9.500  -0.8094   0.00979   0.00517  -0.0560  0.9787  0.0160  -5.9100   0.0000   0.1703
  -9.000  -0.7579   0.00930   0.00468  -0.0551  0.9679  0.0179  -5.4293   0.0000   0.1672
  -8.500  -0.7047   0.00895   0.00431  -0.0545  0.9548  0.0187  -4.9522   0.0000   0.1630
  -8.000  -0.6510   0.00860   0.00390  -0.0540  0.9409  0.0196  -4.4926   0.0000   0.1578
  -7.500  -0.5973   0.00813   0.00340  -0.0535  0.9267  0.0237  -4.0581   0.0000   0.1515
  -6.500  -0.4867   0.00752   0.00273  -0.0531  0.8947  0.0290  -3.2229   0.0000   0.1324
  -6.000  -0.4315   0.00721   0.00241  -0.0529  0.8753  0.0355  -2.8876   0.0000   0.1191
  -5.500  -0.3757   0.00698   0.00213  -0.0528  0.8527  0.0417  -2.5634   0.0000   0.1013
  -5.000  -0.3196   0.00677   0.00189  -0.0527  0.8303  0.0475  -2.2488   0.0000   0.0767
  -4.500  -0.2636   0.00655   0.00166  -0.0526  0.8044  0.0588  -1.9509   0.0000   0.0417
  -4.000  -0.2075   0.00637   0.00146  -0.0526  0.7771  0.0731  -1.6661   0.0000  -0.0127
  -3.500  -0.1514   0.00620   0.00128  -0.0525  0.7462  0.0929  -1.4350   0.0000  -0.1075
  -3.000  -0.0952   0.00605   0.00113  -0.0525  0.7148  0.1163  -1.2155   0.0000  -0.3149
  -2.500  -0.0390   0.00591   0.00101  -0.0525  0.6827  0.1479  -1.0111   0.0000  -1.1220
  -2.000   0.0174   0.00579   0.00092  -0.0525  0.6513  0.1837  -0.8405   0.0000   3.3206
  -1.500   0.0738   0.00569   0.00085  -0.0526  0.6197  0.2212  -0.6841   0.0000   0.9694
  -1.000   0.1301   0.00560   0.00080  -0.0527  0.5881  0.2704  -0.5492   0.0000   0.6564
  -0.500   0.1863   0.00550   0.00079  -0.0527  0.5573  0.3267  -0.5248   0.0000   0.5327
   0.000   0.2425   0.00541   0.00078  -0.0528  0.5281  0.3914  -0.5699   0.0000   0.4663
   0.500   0.2983   0.00525   0.00081  -0.0528  0.5008  0.4874  -0.6185   0.0000   0.4249
   1.000   0.3541   0.00514   0.00086  -0.0528  0.4749  0.5791  -0.6720   0.0000   0.3965
   1.500   0.4099   0.00508   0.00093  -0.0528  0.4490  0.6609  -0.7316   0.0000   0.3756
   2.000   0.4653   0.00506   0.00103  -0.0526  0.4224  0.7413  -0.8001   0.0000   0.3596
   2.500   0.5200   0.00505   0.00115  -0.0523  0.3952  0.8222  -0.8830   0.0000   0.3466
   3.000   0.5734   0.00511   0.00130  -0.0516  0.3647  0.8941  -0.9900   0.0000   0.3357
   3.500   0.6247   0.00533   0.00149  -0.0505  0.3268  0.9467  -1.1227   0.0000   0.3260
   4.000   0.6775   0.00567   0.00171  -0.0497  0.2847  0.9789  -1.2836   0.0000   0.3182
   5.000   0.8057   0.00677   0.00232  -0.0539  0.1832  0.9978  -1.7234   0.0000   0.3107
   5.500   0.8647   0.00737   0.00269  -0.0549  0.1374  1.0000  -1.9772   0.0000   0.3069
   6.000   0.9106   0.00793   0.00306  -0.0530  0.1027  1.0000  -2.2296   0.0000   0.3011
   6.500   0.9590   0.00841   0.00343  -0.0516  0.0813  1.0000  -2.4981   0.0000   0.2961
   7.000   1.0083   0.00897   0.00385  -0.0504  0.0613  1.0000  -2.7788   0.0000   0.2918
   7.500   1.0586   0.00949   0.00429  -0.0495  0.0471  1.0000  -3.1176   0.0000   0.2880
   8.000   1.1090   0.01001   0.00474  -0.0487  0.0387  1.0000  -3.4790   0.0000   0.2845
   8.500   1.1599   0.01048   0.00518  -0.0479  0.0334  1.0000  -3.8565   0.0000   0.2813
   9.000   1.2093   0.01106   0.00572  -0.0470  0.0268  1.0000  -4.2411   0.0000   0.2782
   9.500   1.2592   0.01157   0.00622  -0.0462  0.0246  1.0000  -4.6425   0.0000   0.2753
  10.000   1.3064   0.01227   0.00688  -0.0449  0.0197  1.0000  -5.0430   0.0000   0.2723
  10.500   1.3548   0.01281   0.00744  -0.0439  0.0184  1.0000  -5.4686   0.0000   0.2696
  11.000   1.4015   0.01344   0.00807  -0.0427  0.0169  1.0000  -5.8998   0.0000   0.2668
  11.500   1.4448   0.01426   0.00888  -0.0409  0.0143  1.0000  -6.3725   0.0000   0.2639
  12.000   1.4852   0.01521   0.00989  -0.0387  0.0122  1.0000  -6.8535   0.0000   0.2608
  13.000   1.5648   0.01663   0.01138  -0.0341  0.0119  1.0000  -7.8902   0.0000   0.2549
  13.500   1.5982   0.01748   0.01226  -0.0309  0.0115  1.0000  -8.3933   0.0000   0.2516
  14.000   1.6282   0.01857   0.01339  -0.0275  0.0106  1.0000  -8.8839   0.0000   0.2482
  14.500   1.6527   0.02005   0.01490  -0.0237  0.0094  1.0000  -9.3447   0.0000   0.2447
  15.000   1.6727   0.02192   0.01686  -0.0198  0.0082  1.0000  -9.7712   0.0000   0.2413
  15.500   1.6901   0.02416   0.01923  -0.0163  0.0077  1.0000  -10.1863   0.0000   0.2381
  16.000   1.7030   0.02691   0.02214  -0.0131  0.0074  1.0000  -10.5757   0.0000   0.2350
  16.500   1.7108   0.03041   0.02582  -0.0104  0.0072  1.0000  -10.9316   0.0000   0.2323
  17.000   1.7106   0.03496   0.03058  -0.0083  0.0070  1.0000  -11.2267   0.0000   0.2299
  17.500   1.7044   0.04066   0.03648  -0.0072  0.0069  1.0000  -11.4741   0.0000   0.2281
  18.000   1.7067   0.04586   0.04182  -0.0071  0.0069  1.0000  -11.8036   0.0000   0.2269
  18.500   1.7033   0.05197   0.04807  -0.0077  0.0069  1.0000  -12.0856   0.0000   0.2259
  19.000   1.6950   0.05916   0.05542  -0.0091  0.0068  1.0000  -12.3201   0.0000   0.2255
  19.500   1.6835   0.06701   0.06342  -0.0111  0.0068  1.0000  -12.5218   0.0000   0.2254
  20.000   1.6608   0.07659   0.07318  -0.0140  0.0068  1.0000  -12.6142   0.0000   0.2259


