xflr5 v6.32

 Calculated polar for: NACA 2412

 1 1 Reynolds number fixed          Mach number fixed         

 xtrf =   1.000 (top)        1.000 (bottom)
 Mach =   0.000     Re =     1.000 e 6     Ncrit =   9.000

  alpha     CL        CD       CDp       Cm    Top Xtr Bot Xtr   Cpmin    Chinge    XCp    
 ------- -------- --------- --------- -------- ------- ------- -------- --------- ---------
 -20.000  -0.6802   0.24103   0.23917   0.0388  1.0000  0.0120  -1.7548   0.0000   0.2855
 -19.500  -0.6652   0.23372   0.23186   0.0349  1.0000  0.0120  -1.7910   0.0000   0.2814
 -19.000  -0.6508   0.22622   0.22436   0.0310  1.0000  0.0120  -1.8365   0.0000   0.2771
 -18.500  -0.6371   0.21850   0.21664   0.0272  1.0000  0.0120  -1.8951   0.0000   0.2727
 -18.000  -0.6243   0.21045   0.20859   0.0234  1.0000  0.0121  -1.9768   0.0000   0.2680
 -17.000  -0.6145   0.18992   0.18808   0.0153  1.0000  0.0133  -2.5253   0.0000   0.2560
 -16.500  -0.5948   0.18627   0.18443   0.0130  1.0000  0.0142  -2.2527   0.0000   0.2540
 -16.000  -0.5770   0.18052   0.17867   0.0089  1.0000  0.0186  -2.1746   0.0000   0.2481
 -15.500  -0.5671   0.17225   0.17040   0.0053  1.0000  0.0187  -2.2318   0.0000   0.2424
 -15.000  -1.0096   0.06453   0.06191  -0.0451  1.0000  0.0121  -8.5893   0.0000   0.1859
 -14.500  -1.0742   0.04367   0.04058  -0.0622  1.0000  0.0121  -9.1624   0.0000   0.1742
 -14.000  -1.0909   0.03479   0.03138  -0.0683  1.0000  0.0121  -9.1271   0.0000   0.1707
 -13.500  -1.1030   0.02977   0.02605  -0.0664  1.0000  0.0122  -8.9854   0.0000   0.1741
 -13.000  -1.1358   0.02337   0.01900  -0.0584  1.0000  0.0132  -9.0609   0.0000   0.1838
 -12.500  -1.1143   0.02126   0.01672  -0.0541  1.0000  0.0147  -8.6945   0.0000   0.1875
 -12.000  -1.0806   0.02033   0.01574  -0.0508  1.0000  0.0157  -8.2382   0.0000   0.1897
 -11.500  -1.0482   0.01940   0.01473  -0.0471  1.0000  0.0167  -7.8091   0.0000   0.1924
 -11.000  -1.0161   0.01845   0.01367  -0.0433  1.0000  0.0175  -7.3942   0.0000   0.1954
 -10.500  -0.9731   0.01752   0.01263  -0.0416  0.9993  0.0182  -6.9306   0.0000   0.1959
 -10.000  -0.9097   0.01660   0.01159  -0.0440  0.9967  0.0187  -6.3770   0.0000   0.1908
  -9.500  -0.8483   0.01487   0.00964  -0.0463  0.9939  0.0197  -5.8974   0.0000   0.1850
  -9.000  -0.7875   0.01336   0.00799  -0.0482  0.9905  0.0224  -5.4337   0.0000   0.1788
  -8.500  -0.7229   0.01262   0.00721  -0.0505  0.9863  0.0250  -4.9305   0.0000   0.1706
  -8.000  -0.6541   0.01207   0.00661  -0.0535  0.9833  0.0267  -4.4197   0.0000   0.1590
  -7.500  -0.5855   0.01102   0.00551  -0.0566  0.9805  0.0315  -3.9517   0.0000   0.1442
  -7.000  -0.5262   0.01049   0.00495  -0.0574  0.9713  0.0355  -3.5133   0.0000   0.1321
  -6.500  -0.4662   0.00981   0.00425  -0.0583  0.9628  0.0416  -3.1237   0.0000   0.1163
  -6.000  -0.4129   0.00940   0.00382  -0.0576  0.9502  0.0469  -2.8034   0.0000   0.1020
  -5.500  -0.3592   0.00887   0.00332  -0.0570  0.9366  0.0575  -2.4965   0.0000   0.0827
  -5.000  -0.3052   0.00846   0.00290  -0.0564  0.9209  0.0710  -2.1948   0.0000   0.0564
  -4.500  -0.2511   0.00809   0.00255  -0.0559  0.9036  0.0880  -1.9069   0.0000   0.0183
  -4.000  -0.1968   0.00770   0.00224  -0.0554  0.8835  0.1139  -1.6376   0.0000  -0.0414
  -3.500  -0.1421   0.00736   0.00197  -0.0550  0.8621  0.1482  -1.4120   0.0000  -0.1485
  -3.000  -0.0874   0.00707   0.00174  -0.0547  0.8374  0.1871  -1.1971   0.0000  -0.3906
  -2.500  -0.0326   0.00679   0.00156  -0.0543  0.8112  0.2376  -0.9999   0.0000  -1.4485
  -2.000   0.0222   0.00656   0.00142  -0.0540  0.7818  0.2940  -0.8325   0.0000   2.7197
  -1.500   0.0767   0.00633   0.00130  -0.0536  0.7506  0.3622  -0.6806   0.0000   0.9559
  -1.000   0.1305   0.00606   0.00122  -0.0532  0.7178  0.4592  -0.5494   0.0000   0.6595
  -0.500   0.1838   0.00580   0.00120  -0.0526  0.6834  0.5752  -0.5235   0.0000   0.5363
   0.000   0.2373   0.00562   0.00122  -0.0520  0.6504  0.6781  -0.5673   0.0000   0.4680
   0.500   0.2902   0.00550   0.00128  -0.0512  0.6174  0.7720  -0.6143   0.0000   0.4243
   1.000   0.3418   0.00544   0.00139  -0.0499  0.5852  0.8587  -0.6650   0.0000   0.3933
   1.500   0.3930   0.00553   0.00152  -0.0484  0.5545  0.9262  -0.7213   0.0000   0.3699
   2.000   0.4506   0.00574   0.00167  -0.0484  0.5245  0.9662  -0.7900   0.0000   0.3537
   2.500   0.5189   0.00600   0.00181  -0.0510  0.4945  0.9850  -0.8829   0.0000   0.3442
   3.000   0.5922   0.00629   0.00196  -0.0548  0.4631  0.9941  -1.0123   0.0000   0.3381
   3.500   0.6674   0.00662   0.00213  -0.0592  0.4284  1.0000  -1.1803   0.0000   0.3339
   4.000   0.7151   0.00692   0.00230  -0.0575  0.3948  1.0000  -1.3421   0.0000   0.3252
   4.500   0.7631   0.00724   0.00250  -0.0559  0.3589  1.0000  -1.5288   0.0000   0.3176
   5.000   0.8097   0.00773   0.00277  -0.0542  0.3126  1.0000  -1.7292   0.0000   0.3108
   5.500   0.8559   0.00833   0.00315  -0.0524  0.2618  1.0000  -1.9510   0.0000   0.3046
   6.000   0.9022   0.00902   0.00359  -0.0507  0.2101  1.0000  -2.2035   0.0000   0.2991
   7.000   0.9942   0.01069   0.00475  -0.0475  0.1152  1.0000  -2.7314   0.0000   0.2896
   7.500   1.0408   0.01151   0.00542  -0.0461  0.0853  1.0000  -3.0424   0.0000   0.2855
   8.000   1.0875   0.01230   0.00609  -0.0447  0.0655  1.0000  -3.3844   0.0000   0.2817
   8.500   1.1334   0.01313   0.00683  -0.0432  0.0505  1.0000  -3.7350   0.0000   0.2781
   9.000   1.1795   0.01389   0.00757  -0.0418  0.0418  1.0000  -4.0984   0.0000   0.2747
   9.500   1.2240   0.01474   0.00845  -0.0401  0.0351  1.0000  -4.4621   0.0000   0.2714
  10.000   1.2670   0.01563   0.00933  -0.0383  0.0305  1.0000  -4.8356   0.0000   0.2681
  10.500   1.3063   0.01672   0.01049  -0.0359  0.0265  1.0000  -5.1941   0.0000   0.2647
  11.000   1.3470   0.01758   0.01142  -0.0337  0.0245  1.0000  -5.5791   0.0000   0.2615
  11.500   1.3794   0.01870   0.01258  -0.0303  0.0220  1.0000  -5.9580   0.0000   0.2577
  12.000   1.3959   0.02071   0.01476  -0.0248  0.0189  1.0000  -6.2818   0.0000   0.2527
  12.500   1.4277   0.02187   0.01600  -0.0220  0.0185  1.0000  -6.7230   0.0000   0.2494
  13.000   1.4559   0.02333   0.01756  -0.0190  0.0178  1.0000  -7.1520   0.0000   0.2463
  13.500   1.4801   0.02514   0.01950  -0.0161  0.0168  1.0000  -7.5660   0.0000   0.2431
  14.000   1.5006   0.02739   0.02185  -0.0133  0.0157  1.0000  -7.9628   0.0000   0.2402
  14.500   1.5149   0.03033   0.02490  -0.0107  0.0146  1.0000  -8.3219   0.0000   0.2374
  15.000   1.5143   0.03496   0.02973  -0.0083  0.0133  1.0000  -8.5663   0.0000   0.2348
  15.500   1.4938   0.04222   0.03731  -0.0069  0.0125  1.0000  -8.6514   0.0000   0.2328
  16.000   1.4693   0.05072   0.04614  -0.0071  0.0121  1.0000  -8.6992   0.0000   0.2319
  16.500   1.4650   0.05744   0.05305  -0.0082  0.0121  1.0000  -8.9115   0.0000   0.2315
  17.000   1.4555   0.06528   0.06109  -0.0102  0.0120  1.0000  -9.0767   0.0000   0.2318
  17.500   1.4414   0.07397   0.07000  -0.0128  0.0119  1.0000  -9.1967   0.0000   0.2325
  18.000   1.4228   0.08371   0.07996  -0.0162  0.0119  1.0000  -9.2676   0.0000   0.2337
  18.500   1.4004   0.09443   0.09090  -0.0203  0.0118  1.0000  -9.2904   0.0000   0.2357
  19.000   1.3755   0.10578   0.10247  -0.0250  0.0117  1.0000  -9.2719   0.0000   0.2382
  19.500   1.3473   0.11807   0.11499  -0.0305  0.0117  1.0000  -9.1986   0.0000   0.2415
  20.000   1.3192   0.13086   0.12799  -0.0366  0.0116  1.0000  -9.0930   0.0000   0.2455


