xflr5 v6.32

 Calculated polar for: NACA 2412

 1 1 Reynolds number fixed          Mach number fixed         

 xtrf =   1.000 (top)        1.000 (bottom)
 Mach =   0.000     Re =     0.015 e 6     Ncrit =   9.000

  alpha     CL        CD       CDp       Cm    Top Xtr Bot Xtr   Cpmin    Chinge    XCp    
 ------- -------- --------- --------- -------- ------- ------- -------- --------- ---------
 -20.000  -0.2874   0.13072   0.11920  -0.0075  1.0000  0.3562  -0.5721   0.0000   0.2246
 -19.500  -0.2771   0.12671   0.11530  -0.0100  1.0000  0.3677  -0.5707   0.0000   0.2162
 -19.000  -0.2565   0.11729   0.10586  -0.0114  1.0000  0.3868  -0.5449   0.0000   0.2082
 -18.500  -0.2412   0.11061   0.09926  -0.0132  1.0000  0.4029  -0.5277   0.0000   0.1991
 -18.000  -0.2289   0.10610   0.09487  -0.0149  1.0000  0.4221  -0.5109   0.0000   0.1905
 -17.500  -0.2090   0.09801   0.08679  -0.0162  1.0000  0.4450  -0.4797   0.0000   0.1790
 -17.000  -0.1928   0.09157   0.08035  -0.0175  1.0000  0.4609  -0.4544   0.0000   0.1667
 -16.500  -0.1816   0.08743   0.07639  -0.0186  1.0000  0.4786  -0.4539   0.0000   0.1574
 -16.000  -0.1622   0.08039   0.06937  -0.0196  1.0000  0.5022  -0.4473   0.0000   0.1402
 -15.500  -0.1456   0.07454   0.06363  -0.0203  1.0000  0.5255  -0.4391   0.0000   0.1232
 -15.000  -0.1300   0.06918   0.05840  -0.0208  1.0000  0.5521  -0.4277   0.0000   0.1054
 -14.500  -0.1160   0.06427   0.05367  -0.0209  1.0000  0.5761  -0.4150   0.0000   0.0873
 -14.000  -0.1068   0.06067   0.05033  -0.0203  1.0000  0.5967  -0.4006   0.0000   0.0813
 -13.500  -0.0928   0.05616   0.04588  -0.0200  1.0000  0.6232  -0.3822   0.0000   0.0596
 -13.000  -0.0795   0.05187   0.04178  -0.0194  1.0000  0.6520  -0.3596   0.0000   0.0354
 -12.500  -0.0685   0.04817   0.03831  -0.0183  1.0000  0.6822  -0.3334   0.0000   0.0185
 -12.000  -0.0577   0.04465   0.03500  -0.0172  1.0000  0.7109  -0.3068   0.0000  -0.0057
 -11.500  -0.0477   0.04141   0.03196  -0.0162  1.0000  0.7378  -0.2998   0.0000  -0.0380
 -11.000  -0.0400   0.03869   0.02947  -0.0147  1.0000  0.7665  -0.2886   0.0000  -0.0549
 -10.500  -0.0348   0.03646   0.02752  -0.0127  1.0000  0.7968  -0.2730   0.0000  -0.0409
 -10.000  -0.0296   0.03439   0.02569  -0.0110  1.0000  0.8248  -0.2571   0.0000  -0.0342
  -9.500  -0.0243   0.03242   0.02394  -0.0098  1.0000  0.8511  -0.2408   0.0000  -0.0461
  -9.000  -0.0118   0.02985   0.02146  -0.0102  1.0000  0.8898  -0.2192   0.0000  -0.4056
  -8.500  -0.0068   0.02838   0.02024  -0.0093  1.0000  0.9210  -0.1920   0.0000  -0.7394
  -8.000  -0.0028   0.02713   0.01922  -0.0087  1.0000  0.9443  -0.1669   0.0000  -1.9465
  -7.500   0.0094   0.02542   0.01773  -0.0101  1.0000  0.9780  -0.1432   0.0000   1.0604
  -7.000   0.0197   0.02421   0.01675  -0.0116  1.0000  1.0000  -0.1137   0.0000   0.7087
  -6.500   0.0170   0.02368   0.01633  -0.0105  1.0000  1.0000  -0.1094   0.0000   0.7258
  -6.000   0.0144   0.02314   0.01589  -0.0096  1.0000  1.0000  -0.1042   0.0000   0.7575
  -5.500   0.0119   0.02260   0.01543  -0.0088  1.0000  1.0000  -0.0977   0.0000   0.8115
  -5.000   0.0094   0.02204   0.01495  -0.0081  1.0000  1.0000  -0.0901   0.0000   0.9042
  -4.500   0.0069   0.02148   0.01444  -0.0075  1.0000  1.0000  -0.0849   0.0000   1.0754
  -4.000   0.0045   0.02090   0.01392  -0.0070  1.0000  1.0000  -0.0822   0.0000   1.4573
  -3.500   0.0020   0.02033   0.01338  -0.0065  1.0000  1.0000  -0.0781   0.0000   2.8782
  -3.000  -0.0006   0.01975   0.01277  -0.0062  1.0000  1.0000  -0.0728   0.0000  -7.6731
  -2.500  -0.0033   0.01917   0.01220  -0.0059  1.0000  1.0000  -0.0661   0.0000  -1.2080
  -2.000  -0.0061   0.01859   0.01161  -0.0056  1.0000  1.0000  -0.0582   0.0000  -0.5237
  -1.500  -0.0091   0.01801   0.01102  -0.0053  1.0000  1.0000  -0.0538   0.0000  -0.2654
  -1.000  -0.0123   0.01743   0.01041  -0.0051  1.0000  1.0000  -0.0491   0.0000  -0.1303
  -0.500  -0.0158   0.01686   0.00980  -0.0049  1.0000  1.0000  -0.0432   0.0000  -0.0471
   0.000  -0.0195   0.01628   0.00917  -0.0047  1.0000  1.0000  -0.0364   0.0000   0.0100
   0.500  -0.0126   0.03639   0.01770  -0.0128  1.0000  1.0000  -0.5441   0.0000  -0.7620
   1.000   0.0175   0.03765   0.01865  -0.0118  1.0000  1.0000  -0.4699   0.0000   0.9121
   1.500   0.0476   0.03917   0.01993  -0.0113  1.0000  1.0000  -0.4518   0.0000   0.4762
   2.000   0.0775   0.04094   0.02152  -0.0110  1.0000  1.0000  -0.4754   0.0000   0.3823
   2.500   0.1071   0.04297   0.02340  -0.0110  1.0000  1.0000  -0.5003   0.0000   0.3435
   3.000   0.1361   0.04525   0.02560  -0.0113  1.0000  1.0000  -0.5271   0.0000   0.3236
   3.500   0.1645   0.04779   0.02812  -0.0118  1.0000  1.0000  -0.5560   0.0000   0.3124
   4.000   0.1922   0.05062   0.03096  -0.0125  1.0000  1.0000  -0.5877   0.0000   0.3058
   4.500   0.2190   0.05374   0.03415  -0.0135  1.0000  1.0000  -0.6224   0.0000   0.3020
   5.000   0.2448   0.05716   0.03774  -0.0147  1.0000  1.0000  -0.6606   0.0000   0.3000
   5.500   0.2695   0.06089   0.04161  -0.0161  1.0000  1.0000  -0.7019   0.0000   0.2994
   6.000   0.2929   0.06495   0.04584  -0.0176  1.0000  1.0000  -0.7458   0.0000   0.2996
   6.500   0.3151   0.06937   0.05045  -0.0194  1.0000  1.0000  -0.7925   0.0000   0.3007
   7.000   0.3360   0.07413   0.05543  -0.0214  1.0000  1.0000  -0.8411   0.0000   0.3023
   7.500   0.3558   0.07926   0.06080  -0.0236  1.0000  1.0000  -0.8866   0.0000   0.3044
   8.000   0.3744   0.08474   0.06654  -0.0259  1.0000  1.0000  -0.9349   0.0000   0.3069
   8.500   0.3920   0.09060   0.07278  -0.0284  1.0000  1.0000  -0.9781   0.0000   0.3098
   9.000   0.4089   0.09679   0.07923  -0.0311  1.0000  1.0000  -1.0141   0.0000   0.3130
   9.500   0.4251   0.10329   0.08600  -0.0339  1.0000  1.0000  -1.0553   0.0000   0.3163
  10.000   0.4409   0.11007   0.09303  -0.0369  1.0000  1.0000  -1.0885   0.0000   0.3197
  10.500   0.4565   0.11707   0.10028  -0.0400  1.0000  1.0000  -1.1137   0.0000   0.3231
  11.000   0.4722   0.12427   0.10771  -0.0431  1.0000  1.0000  -1.1312   0.0000   0.3264
  11.500   0.5011   0.13378   0.11753  -0.0497  0.9875  1.0000  -1.1715   0.0000   0.3340
  12.000   0.5624   0.15004   0.13435  -0.0633  0.9227  1.0000  -1.2462   0.0000   0.3473
  12.500   0.5895   0.15839   0.14296  -0.0679  0.8717  1.0000  -1.2709   0.0000   0.3497
  13.000   0.6184   0.16756   0.15235  -0.0719  0.8179  1.0000  -1.2933   0.0000   0.3506
  13.500   0.6468   0.17736   0.16236  -0.0756  0.7750  1.0000  -1.3121   0.0000   0.3510
  14.000   0.6676   0.18540   0.17052  -0.0777  0.7350  1.0000  -1.3425   0.0000   0.3501
  14.500   0.6861   0.19238   0.17762  -0.0795  0.6994  1.0000  -1.3653   0.0000   0.3492
  15.000   0.7060   0.20039   0.18574  -0.0817  0.6690  1.0000  -1.3853   0.0000   0.3485
  15.500   0.7308   0.20998   0.19546  -0.0840  0.6316  1.0000  -1.4099   0.0000   0.3473
  16.000   0.7463   0.21657   0.20223  -0.0858  0.6058  1.0000  -1.4154   0.0000   0.3467
  16.500   0.7632   0.22425   0.20997  -0.0880  0.5851  1.0000  -1.4175   0.0000   0.3465
  17.000   0.7839   0.23352   0.21932  -0.0903  0.5601  1.0000  -1.4223   0.0000   0.3458
  17.500   0.8042   0.24268   0.22856  -0.0924  0.5328  1.0000  -1.4269   0.0000   0.3450
  18.000   0.8338   0.25902   0.24503  -0.0953  0.5076  1.0000  -1.4804   0.0000   0.3438
  18.500   0.8340   0.25425   0.24024  -0.0969  0.4909  1.0000  -1.4735   0.0000   0.3448
  19.000   0.8550   0.26573   0.25179  -0.0997  0.4752  1.0000  -1.5022   0.0000   0.3445
  19.500   0.8834   0.28354   0.26985  -0.1021  0.4505  1.0000  -1.5462   0.0000   0.3430
  20.000   0.8851   0.27671   0.26297  -0.1047  0.4327  1.0000  -1.5326   0.0000   0.3446


