xflr5 v6.32

 Calculated polar for: NACA 2412

 1 1 Reynolds number fixed          Mach number fixed         

 xtrf =   1.000 (top)        1.000 (bottom)
 Mach =   0.000     Re =     0.300 e 6     Ncrit =   9.000

  alpha     CL        CD       CDp       Cm    Top Xtr Bot Xtr   Cpmin    Chinge    XCp    
 ------- -------- --------- --------- -------- ------- ------- -------- --------- ---------
 -20.000  -0.6768   0.24340   0.24003   0.0392  1.0000  0.0219  -1.5082   0.0000   0.2867
 -19.500  -0.6609   0.23681   0.23344   0.0354  1.0000  0.0231  -1.5053   0.0000   0.2830
 -19.000  -0.6454   0.22985   0.22648   0.0313  1.0000  0.0250  -1.5357   0.0000   0.2786
 -18.500  -0.6348   0.22312   0.21976   0.0246  1.0000  0.0266  -1.7282   0.0000   0.2693
 -18.000  -0.6244   0.21610   0.21275   0.0196  1.0000  0.0268  -1.8529   0.0000   0.2625
 -17.500  -0.6155   0.20542   0.20210   0.0159  1.0000  0.0274  -2.0099   0.0000   0.2573
 -17.000  -0.5930   0.19938   0.19604   0.0158  1.0000  0.0287  -1.8145   0.0000   0.2588
 -16.500  -0.5767   0.19358   0.19022   0.0134  1.0000  0.0308  -1.7398   0.0000   0.2560
 -16.000  -0.5643   0.18661   0.18325   0.0097  1.0000  0.0343  -1.7616   0.0000   0.2504
 -15.500  -0.5644   0.17917   0.17583   0.0023  1.0000  0.0362  -1.9831   0.0000   0.2376
 -15.000  -0.5560   0.17126   0.16793  -0.0020  1.0000  0.0364  -2.0372   0.0000   0.2305
 -14.500  -0.5399   0.16256   0.15923  -0.0016  1.0000  0.0381  -1.8914   0.0000   0.2315
 -14.000  -0.5248   0.15641   0.15310  -0.0034  1.0000  0.0393  -1.7894   0.0000   0.2287
 -13.500  -0.5140   0.14962   0.14632  -0.0058  1.0000  0.0409  -1.7434   0.0000   0.2242
 -13.000  -0.5072   0.14207   0.13877  -0.0090  1.0000  0.0433  -1.7474   0.0000   0.2182
 -12.500  -0.5168   0.13126   0.12800  -0.0177  1.0000  0.0469  -2.0114   0.0000   0.2021
 -12.000  -0.7949   0.05352   0.04980  -0.0628  1.0000  0.0285  -5.4842   0.0000   0.1571
 -11.500  -0.8451   0.04393   0.03974  -0.0653  1.0000  0.0285  -5.7267   0.0000   0.1601
 -11.000  -0.8549   0.03948   0.03501  -0.0610  1.0000  0.0293  -5.6571   0.0000   0.1668
 -10.500  -0.8508   0.03594   0.03117  -0.0563  1.0000  0.0305  -5.5101   0.0000   0.1727
 -10.000  -0.8404   0.03254   0.02742  -0.0512  1.0000  0.0317  -5.3470   0.0000   0.1785
  -9.500  -0.8243   0.02932   0.02380  -0.0462  1.0000  0.0331  -5.1651   0.0000   0.1839
  -9.000  -0.8017   0.02651   0.02058  -0.0416  1.0000  0.0346  -4.9516   0.0000   0.1885
  -8.500  -0.7724   0.02454   0.01824  -0.0377  1.0000  0.0361  -4.6920   0.0000   0.1922
  -8.000  -0.7437   0.02147   0.01491  -0.0341  1.0000  0.0397  -4.4455   0.0000   0.1955
  -7.500  -0.7070   0.02033   0.01366  -0.0313  1.0000  0.0435  -4.1234   0.0000   0.1975
  -7.000  -0.6581   0.01913   0.01221  -0.0306  0.9985  0.0468  -3.7822   0.0000   0.1956
  -6.500  -0.5867   0.01702   0.01000  -0.0347  0.9932  0.0538  -3.3736   0.0000   0.1831
  -6.000  -0.5150   0.01571   0.00860  -0.0385  0.9855  0.0629  -2.9846   0.0000   0.1677
  -5.500  -0.4362   0.01467   0.00756  -0.0437  0.9797  0.0765  -2.6330   0.0000   0.1422
  -5.000  -0.3667   0.01368   0.00660  -0.0468  0.9691  0.0946  -2.3087   0.0000   0.1146
  -4.500  -0.2863   0.01278   0.00583  -0.0522  0.9639  0.1266  -1.9652   0.0000   0.0593
  -4.000  -0.2204   0.01199   0.00523  -0.0544  0.9522  0.1700  -1.6703   0.0000  -0.0062
  -3.500  -0.1445   0.01114   0.00463  -0.0587  0.9450  0.2361  -1.4069   0.0000  -0.1677
  -3.000  -0.0866   0.01045   0.00422  -0.0589  0.9289  0.3093  -1.1890   0.0000  -0.4468
  -2.500  -0.0297   0.00973   0.00383  -0.0589  0.9115  0.3994  -0.9931   0.0000  -1.7680
  -2.000   0.0235   0.00896   0.00354  -0.0579  0.8921  0.5318  -0.8290   0.0000   2.7506
  -1.500   0.0737   0.00831   0.00333  -0.0559  0.8692  0.6677  -0.6837   0.0000   1.0157
  -1.000   0.1229   0.00789   0.00325  -0.0533  0.8437  0.7840  -0.5570   0.0000   0.6862
  -0.500   0.1729   0.00775   0.00324  -0.0506  0.8152  0.8779  -0.5164   0.0000   0.5428
   0.000   0.2345   0.00784   0.00326  -0.0504  0.7846  0.9394  -0.5647   0.0000   0.4639
   0.500   0.3126   0.00802   0.00324  -0.0543  0.7511  0.9731  -0.6261   0.0000   0.4218
   1.000   0.4009   0.00822   0.00319  -0.0608  0.7146  0.9935  -0.7000   0.0000   0.3993
   1.500   0.4675   0.00835   0.00313  -0.0633  0.6776  1.0000  -0.7695   0.0000   0.3824
   2.000   0.5150   0.00853   0.00315  -0.0617  0.6424  1.0000  -0.8370   0.0000   0.3664
   2.500   0.5624   0.00877   0.00322  -0.0600  0.6090  1.0000  -0.9211   0.0000   0.3528
   3.000   0.6099   0.00906   0.00336  -0.0583  0.5772  1.0000  -1.0291   0.0000   0.3413
   3.500   0.6574   0.00938   0.00355  -0.0565  0.5460  1.0000  -1.1612   0.0000   0.3312
   4.000   0.7046   0.00974   0.00381  -0.0547  0.5143  1.0000  -1.3176   0.0000   0.3225
   4.500   0.7516   0.01014   0.00408  -0.0529  0.4815  1.0000  -1.4956   0.0000   0.3147
   5.000   0.7991   0.01055   0.00440  -0.0512  0.4474  1.0000  -1.6959   0.0000   0.3079
   5.500   0.8468   0.01098   0.00476  -0.0495  0.4089  1.0000  -1.9089   0.0000   0.3019
   6.000   0.8929   0.01156   0.00523  -0.0477  0.3639  1.0000  -2.1600   0.0000   0.2963
   6.500   0.9377   0.01229   0.00576  -0.0458  0.3100  1.0000  -2.4137   0.0000   0.2912
   7.000   0.9795   0.01331   0.00649  -0.0436  0.2453  1.0000  -2.6669   0.0000   0.2863
   7.500   1.0192   0.01457   0.00746  -0.0412  0.1803  1.0000  -2.9324   0.0000   0.2816
   8.000   1.0567   0.01604   0.00864  -0.0386  0.1263  1.0000  -3.2312   0.0000   0.2771
   8.500   1.0927   0.01758   0.00998  -0.0357  0.0921  1.0000  -3.5280   0.0000   0.2727
   9.000   1.1241   0.01935   0.01165  -0.0322  0.0725  1.0000  -3.8088   0.0000   0.2680
   9.500   1.1572   0.02084   0.01319  -0.0290  0.0616  1.0000  -4.1031   0.0000   0.2637
  10.000   1.1832   0.02253   0.01503  -0.0246  0.0542  1.0000  -4.3665   0.0000   0.2588
  10.500   1.1984   0.02499   0.01750  -0.0195  0.0474  1.0000  -4.5940   0.0000   0.2535
  11.000   1.2259   0.02666   0.01937  -0.0162  0.0434  1.0000  -4.8766   0.0000   0.2497
  11.500   1.2463   0.02896   0.02178  -0.0127  0.0398  1.0000  -5.1322   0.0000   0.2459
  12.000   1.2532   0.03300   0.02593  -0.0084  0.0363  1.0000  -5.3146   0.0000   0.2416
  12.500   1.2729   0.03571   0.02891  -0.0059  0.0347  1.0000  -5.6163   0.0000   0.2387
  13.000   1.2878   0.03908   0.03253  -0.0035  0.0329  1.0000  -5.8918   0.0000   0.2359
  13.500   1.2988   0.04293   0.03660  -0.0016  0.0311  1.0000  -6.1513   0.0000   0.2335
  14.000   1.3058   0.04736   0.04121  -0.0003  0.0296  1.0000  -6.3925   0.0000   0.2316
  14.500   1.3043   0.05304   0.04710   0.0009  0.0279  1.0000  -6.5677   0.0000   0.2297
  15.000   1.2870   0.06125   0.05573   0.0015  0.0267  1.0000  -6.5979   0.0000   0.2283
  15.500   1.2772   0.06835   0.06315  -0.0001  0.0260  1.0000  -6.7151   0.0000   0.2285
  16.000   1.2601   0.07726   0.07244  -0.0030  0.0254  1.0000  -6.7613   0.0000   0.2297
  16.500   1.2339   0.08836   0.08391  -0.0076  0.0249  1.0000  -6.7149   0.0000   0.2324
  17.000   1.1959   0.10234   0.09828  -0.0144  0.0248  1.0000  -6.5441   0.0000   0.2372
  17.500   1.1425   0.12098   0.11731  -0.0250  0.0249  1.0000  -6.1849   0.0000   0.2461
  18.000   0.8792   0.21467   0.21155  -0.0734  0.0397  1.0000  -2.2580   0.0000   0.3119
  18.500   0.8977   0.21946   0.21637  -0.0749  0.0379  1.0000  -2.4192   0.0000   0.3108
  19.000   0.9064   0.22891   0.22581  -0.0771  0.0363  1.0000  -2.4212   0.0000   0.3116
  19.500   0.9138   0.23958   0.23648  -0.0837  0.0359  1.0000  -2.2095   0.0000   0.3175
  20.000   0.9201   0.24927   0.24615  -0.0923  0.0307  1.0000  -1.9727   0.0000   0.3256


