xflr5 v6.32

 Calculated polar for: NACA 2412

 1 1 Reynolds number fixed          Mach number fixed         

 xtrf =   1.000 (top)        1.000 (bottom)
 Mach =   0.000     Re =     0.030 e 6     Ncrit =   9.000

  alpha     CL        CD       CDp       Cm    Top Xtr Bot Xtr   Cpmin    Chinge    XCp    
 ------- -------- --------- --------- -------- ------- ------- -------- --------- ---------
 -20.000  -0.6876   0.26664   0.25641   0.0354  1.0000  0.1570  -1.4771   0.0000   0.2818
 -19.500  -0.6579   0.24826   0.23790   0.0348  1.0000  0.1649  -1.4085   0.0000   0.2831
 -19.000  -0.6454   0.24458   0.23424   0.0309  1.0000  0.1738  -1.4227   0.0000   0.2789
 -18.500  -0.6404   0.24360   0.23335   0.0262  1.0000  0.1776  -1.4669   0.0000   0.2730
 -18.000  -0.6115   0.22897   0.21863   0.0253  1.0000  0.1872  -1.3968   0.0000   0.2734
 -17.500  -0.6078   0.22906   0.21877   0.0210  1.0000  0.1964  -1.4306   0.0000   0.2676
 -17.000  -0.5824   0.21630   0.20594   0.0196  1.0000  0.2061  -1.3740   0.0000   0.2668
 -16.500  -0.5844   0.21800   0.20771   0.0159  1.0000  0.2187  -1.4110   0.0000   0.2614
 -16.000  -0.5531   0.20342   0.19309   0.0149  1.0000  0.2308  -1.3338   0.0000   0.2610
 -15.500  -0.5617   0.20587   0.19564   0.0116  1.0000  0.2416  -1.3828   0.0000   0.2558
 -15.000  -0.5259   0.19048   0.18020   0.0105  1.0000  0.2538  -1.2931   0.0000   0.2550
 -14.500  -0.5422   0.19380   0.18364   0.0079  1.0000  0.2655  -1.3520   0.0000   0.2507
 -14.000  -0.5002   0.17770   0.16748   0.0069  1.0000  0.2813  -1.2785   0.0000   0.2497
 -13.500  -0.5020   0.17420   0.16407   0.0050  1.0000  0.2932  -1.3215   0.0000   0.2465
 -13.000  -0.4916   0.16889   0.15871   0.0042  1.0000  0.3136  -1.3253   0.0000   0.2456
 -12.500  -0.4725   0.16063   0.15046   0.0037  1.0000  0.3380  -1.3083   0.0000   0.2450
 -12.000  -0.4537   0.15257   0.14243   0.0032  1.0000  0.3620  -1.2912   0.0000   0.2444
 -11.500  -0.4365   0.14471   0.13461   0.0026  1.0000  0.3820  -1.2774   0.0000   0.2434
 -11.000  -0.4259   0.13824   0.12818   0.0023  1.0000  0.4047  -1.2719   0.0000   0.2432
 -10.500  -0.4149   0.13185   0.12185   0.0024  1.0000  0.4306  -1.2603   0.0000   0.2439
 -10.000  -0.3952   0.12477   0.11479   0.0029  1.0000  0.4665  -1.2249   0.0000   0.2456
  -9.500  -0.4099   0.12368   0.11383   0.0062  1.0000  0.5072  -1.2437   0.0000   0.2544
  -9.000  -0.3595   0.11118   0.10119   0.0047  1.0000  0.5486  -1.1557   0.0000   0.2516
  -8.500  -0.3515   0.10640   0.09646   0.0068  1.0000  0.5920  -1.1610   0.0000   0.2582
  -8.000  -0.3176   0.09809   0.08813   0.0069  1.0000  0.6482  -1.1302   0.0000   0.2602
  -7.500  -0.2857   0.09001   0.08004   0.0062  1.0000  0.6963  -1.1006   0.0000   0.2595
  -7.000  -0.5061   0.07755   0.06850  -0.0215  1.0000  0.2881  -1.8015   0.0000   0.2014
  -6.500  -0.5383   0.06586   0.05661  -0.0267  1.0000  0.2656  -1.9996   0.0000   0.1948
  -6.000  -0.5219   0.05896   0.04973  -0.0239  1.0000  0.2751  -1.9657   0.0000   0.1989
  -5.500  -0.5140   0.05132   0.04159  -0.0240  1.0000  0.2864  -1.9950   0.0000   0.1982
  -5.000  -0.4882   0.04470   0.03447  -0.0229  1.0000  0.3003  -1.9550   0.0000   0.1982
  -4.500  -0.4565   0.03995   0.02931  -0.0210  1.0000  0.3362  -1.8683   0.0000   0.1991
  -4.000  -0.4186   0.03589   0.02507  -0.0187  1.0000  0.3828  -1.7469   0.0000   0.2006
  -3.500  -0.3792   0.03259   0.02163  -0.0160  1.0000  0.4527  -1.6101   0.0000   0.2031
  -3.000  -0.3433   0.03022   0.01965  -0.0105  1.0000  0.5516  -1.4850   0.0000   0.2147
  -2.000  -0.1237   0.02640   0.01573  -0.0249  1.0000  1.0000  -0.9913   0.0000   0.0398
  -1.500  -0.1365   0.02577   0.01460  -0.0187  1.0000  1.0000  -0.9533   0.0000   0.1062
  -1.000  -0.1157   0.02611   0.01437  -0.0162  1.0000  1.0000  -0.8547   0.0000   0.1041
  -0.500  -0.0873   0.02684   0.01465  -0.0147  1.0000  1.0000  -0.7520   0.0000   0.0766
   0.000  -0.0565   0.02786   0.01524  -0.0137  1.0000  1.0000  -0.6557   0.0000   0.0033
   0.500  -0.0249   0.02916   0.01623  -0.0132  1.0000  1.0000  -0.5674   0.0000  -0.2790
   1.000   0.0068   0.03071   0.01755  -0.0130  1.0000  1.0000  -0.4871   0.0000   2.1220
   1.500   0.0385   0.03252   0.01917  -0.0131  1.0000  1.0000  -0.4383   0.0000   0.5797
   2.000   0.0699   0.03456   0.02109  -0.0135  1.0000  1.0000  -0.4614   0.0000   0.4339
   2.500   0.1009   0.03685   0.02328  -0.0142  1.0000  1.0000  -0.4859   0.0000   0.3811
   3.000   0.1444   0.03982   0.02620  -0.0175  0.9940  1.0000  -0.5214   0.0000   0.3626
   3.500   0.2362   0.04436   0.03079  -0.0297  0.9530  1.0000  -0.5979   0.0000   0.3684
   4.000   0.3093   0.04840   0.03495  -0.0376  0.9134  1.0000  -0.6743   0.0000   0.3646
   4.500   0.3820   0.05255   0.03930  -0.0446  0.8726  1.0000  -0.7675   0.0000   0.3599
   5.000   0.4348   0.05628   0.04322  -0.0480  0.8326  1.0000  -0.8578   0.0000   0.3534
   5.500   0.4895   0.06033   0.04749  -0.0511  0.7907  1.0000  -0.9673   0.0000   0.3472
   6.000   0.5532   0.06430   0.05186  -0.0543  0.7440  1.0000  -1.1106   0.0000   0.3408
   6.500   0.5791   0.06857   0.05633  -0.0533  0.7021  1.0000  -1.1975   0.0000   0.3343
   7.000   0.6361   0.07251   0.06061  -0.0538  0.6496  1.0000  -1.3625   0.0000   0.3267
   7.500   0.6913   0.07597   0.06444  -0.0526  0.5931  1.0000  -1.5367   0.0000   0.3179
   8.000   0.6939   0.08165   0.07029  -0.0501  0.5493  1.0000  -1.5770   0.0000   0.3135
   8.500   0.7247   0.08637   0.07539  -0.0474  0.4964  1.0000  -1.7065   0.0000   0.3064
   9.000   0.7574   0.09092   0.08020  -0.0441  0.4439  1.0000  -1.8407   0.0000   0.2988
   9.500   0.7527   0.09890   0.08826  -0.0433  0.4104  1.0000  -1.8397   0.0000   0.2976
  10.000   0.7518   0.10726   0.09670  -0.0432  0.3826  1.0000  -1.8364   0.0000   0.2970
  10.500   0.7584   0.11635   0.10589  -0.0437  0.3631  1.0000  -1.8382   0.0000   0.2967
  11.000   0.7410   0.12746   0.11700  -0.0471  0.3618  1.0000  -1.7456   0.0000   0.3022
  13.000   0.7193   0.17189   0.16161  -0.0655  0.4486  1.0000  -1.4804   0.0000   0.3277
  13.500   0.7207   0.17630   0.16605  -0.0661  0.4277  1.0000  -1.4738   0.0000   0.3277
  14.000   0.7244   0.18264   0.17239  -0.0677  0.4130  1.0000  -1.4624   0.0000   0.3287
  14.500   0.7425   0.19095   0.18075  -0.0688  0.3892  1.0000  -1.4844   0.0000   0.3275
  15.000   0.7870   0.20802   0.19807  -0.0704  0.3676  1.0000  -1.5550   0.0000   0.3240
  15.500   0.7653   0.20399   0.19395  -0.0724  0.3531  1.0000  -1.4800   0.0000   0.3281
  16.000   0.7953   0.21780   0.20785  -0.0740  0.3398  1.0000  -1.5089   0.0000   0.3261
  16.500   0.8279   0.23223   0.22238  -0.0750  0.3155  1.0000  -1.5655   0.0000   0.3232
  17.000   0.8086   0.22539   0.21543  -0.0787  0.3016  1.0000  -1.4964   0.0000   0.3288
  17.500   0.8407   0.24156   0.23170  -0.0799  0.2895  1.0000  -1.5760   0.0000   0.3260
  18.000   0.8382   0.23977   0.22987  -0.0840  0.2756  1.0000  -1.5430   0.0000   0.3302
  18.500   0.8686   0.25679   0.24698  -0.0851  0.2652  1.0000  -1.6124   0.0000   0.3274
  19.000   0.8675   0.25389   0.24411  -0.0901  0.2528  1.0000  -1.5715   0.0000   0.3321
  19.500   0.8936   0.26917   0.25946  -0.0912  0.2412  1.0000  -1.6266   0.0000   0.3298
  20.000   0.9004   0.26828   0.25856  -0.0958  0.2256  1.0000  -1.6064   0.0000   0.3330


