xflr5 v6.32

 Calculated polar for: NACA 2412

 1 1 Reynolds number fixed          Mach number fixed         

 xtrf =   1.000 (top)        1.000 (bottom)
 Mach =   0.000     Re =     0.040 e 6     Ncrit =   9.000

  alpha     CL        CD       CDp       Cm    Top Xtr Bot Xtr   Cpmin    Chinge    XCp    
 ------- -------- --------- --------- -------- ------- ------- -------- --------- ---------
 -20.000  -0.6894   0.26656   0.25763   0.0336  1.0000  0.1195  -1.5190   0.0000   0.2790
 -19.500  -0.6586   0.24603   0.23703   0.0335  1.0000  0.1241  -1.4366   0.0000   0.2811
 -19.000  -0.6413   0.23913   0.23011   0.0306  1.0000  0.1309  -1.4258   0.0000   0.2785
 -18.500  -0.6365   0.23953   0.23056   0.0250  1.0000  0.1367  -1.4893   0.0000   0.2711
 -18.000  -0.6169   0.22836   0.21940   0.0226  1.0000  0.1402  -1.4667   0.0000   0.2689
 -17.500  -0.5958   0.21956   0.21057   0.0209  1.0000  0.1478  -1.4180   0.0000   0.2676
 -17.000  -0.5922   0.21843   0.20943   0.0162  1.0000  0.1554  -1.4606   0.0000   0.2608
 -16.500  -0.5746   0.20869   0.19972   0.0138  1.0000  0.1595  -1.4358   0.0000   0.2578
 -16.000  -0.5538   0.20043   0.19144   0.0122  1.0000  0.1695  -1.3809   0.0000   0.2562
 -15.500  -0.5734   0.20553   0.19666   0.0071  1.0000  0.1764  -1.4904   0.0000   0.2478
 -15.000  -0.5292   0.18828   0.17934   0.0074  1.0000  0.1923  -1.3451   0.0000   0.2492
 -14.500  -0.5323   0.18512   0.17628   0.0039  1.0000  0.1994  -1.3862   0.0000   0.2433
 -14.000  -0.5035   0.17474   0.16585   0.0033  1.0000  0.2123  -1.3073   0.0000   0.2426
 -13.500  -0.5321   0.17757   0.16887  -0.0007  1.0000  0.2198  -1.4309   0.0000   0.2361
 -13.000  -0.4814   0.16167   0.15279  -0.0002  1.0000  0.2349  -1.3365   0.0000   0.2364
 -12.500  -0.4894   0.15786   0.14909  -0.0028  1.0000  0.2446  -1.3986   0.0000   0.2320
 -12.000  -0.4678   0.14993   0.14115  -0.0032  1.0000  0.2621  -1.3691   0.0000   0.2309
 -11.500  -0.4489   0.14172   0.13296  -0.0037  1.0000  0.2793  -1.3464   0.0000   0.2297
 -11.000  -0.4389   0.13525   0.12654  -0.0042  1.0000  0.3010  -1.3400   0.0000   0.2289
 -10.500  -0.4422   0.13018   0.12159  -0.0051  1.0000  0.3196  -1.3654   0.0000   0.2277
 -10.000  -0.4619   0.12893   0.12047  -0.0053  1.0000  0.3410  -1.4158   0.0000   0.2289
  -9.500  -0.4265   0.11843   0.10995  -0.0048  1.0000  0.3653  -1.3425   0.0000   0.2288
  -9.000  -0.4023   0.10995   0.10148  -0.0045  1.0000  0.3880  -1.2934   0.0000   0.2289
  -8.500  -0.4172   0.10709   0.09872  -0.0026  1.0000  0.4213  -1.3158   0.0000   0.2350
  -8.000  -0.3725   0.09690   0.08849  -0.0015  1.0000  0.4603  -1.2363   0.0000   0.2367
  -7.500  -0.5262   0.07642   0.06851  -0.0309  1.0000  0.2171  -1.9912   0.0000   0.1847
  -7.000  -0.5357   0.06727   0.05934  -0.0312  1.0000  0.2130  -2.0516   0.0000   0.1857
  -6.500  -0.5458   0.05806   0.04987  -0.0313  1.0000  0.2113  -2.1269   0.0000   0.1870
  -6.000  -0.5413   0.04921   0.04040  -0.0307  1.0000  0.2105  -2.1828   0.0000   0.1876
  -5.500  -0.5202   0.04192   0.03215  -0.0296  1.0000  0.2174  -2.2012   0.0000   0.1876
  -5.000  -0.4878   0.03768   0.02740  -0.0273  1.0000  0.2421  -2.1055   0.0000   0.1886
  -4.500  -0.4488   0.03356   0.02299  -0.0253  1.0000  0.2694  -1.9787   0.0000   0.1884
  -4.000  -0.4073   0.03067   0.01987  -0.0232  1.0000  0.3143  -1.8285   0.0000   0.1877
  -3.500  -0.3650   0.02816   0.01761  -0.0209  1.0000  0.3782  -1.6553   0.0000   0.1877
  -3.000  -0.3229   0.02618   0.01592  -0.0181  1.0000  0.4758  -1.5080   0.0000   0.1890
  -2.500  -0.2866   0.02458   0.01503  -0.0128  1.0000  0.6207  -1.3636   0.0000   0.2006
  -2.000  -0.1169   0.02416   0.01508  -0.0252  1.0000  1.0000  -0.9852   0.0000   0.0248
  -1.500  -0.1464   0.02322   0.01373  -0.0177  1.0000  1.0000  -0.9775   0.0000   0.1229
  -1.000  -0.1236   0.02365   0.01363  -0.0157  1.0000  1.0000  -0.8752   0.0000   0.1176
  -0.500  -0.0937   0.02450   0.01407  -0.0146  1.0000  1.0000  -0.7661   0.0000   0.0893
   0.000  -0.0619   0.02565   0.01483  -0.0140  1.0000  1.0000  -0.6679   0.0000   0.0195
   0.500  -0.0295   0.02707   0.01599  -0.0138  1.0000  1.0000  -0.5763   0.0000  -0.2204
   1.000   0.0030   0.02875   0.01745  -0.0139  1.0000  1.0000  -0.4944   0.0000   4.8280
   1.500   0.1042   0.03176   0.02027  -0.0265  0.9675  1.0000  -0.4749   0.0000   0.4995
   2.000   0.1900   0.03433   0.02273  -0.0355  0.9318  1.0000  -0.5374   0.0000   0.4321
   2.500   0.2746   0.03682   0.02519  -0.0434  0.8977  1.0000  -0.6086   0.0000   0.4034
   3.000   0.3357   0.03898   0.02739  -0.0469  0.8623  1.0000  -0.6714   0.0000   0.3849
   3.500   0.4140   0.04110   0.02966  -0.0522  0.8276  1.0000  -0.7650   0.0000   0.3711
   4.000   0.4692   0.04331   0.03199  -0.0538  0.7923  1.0000  -0.8560   0.0000   0.3592
   4.500   0.5177   0.04558   0.03440  -0.0541  0.7551  1.0000  -0.9565   0.0000   0.3487
   5.000   0.5908   0.04707   0.03615  -0.0561  0.7172  1.0000  -1.1180   0.0000   0.3389
   5.500   0.6437   0.04898   0.03838  -0.0553  0.6778  1.0000  -1.2728   0.0000   0.3295
   6.000   0.6927   0.05064   0.04031  -0.0533  0.6347  1.0000  -1.4404   0.0000   0.3203
   6.500   0.7746   0.04947   0.03952  -0.0509  0.5883  1.0000  -1.7096   0.0000   0.3087
   7.000   0.8734   0.04516   0.03569  -0.0465  0.5324  1.0000  -2.0878   0.0000   0.2958
   7.500   0.9420   0.04262   0.03333  -0.0406  0.4643  1.0000  -2.4020   0.0000   0.2851
   8.000   1.0059   0.04058   0.03108  -0.0346  0.3847  1.0000  -2.7047   0.0000   0.2758
   8.500   1.0513   0.04116   0.03128  -0.0293  0.3111  1.0000  -2.9733   0.0000   0.2684
   9.000   1.0806   0.04472   0.03474  -0.0246  0.2599  1.0000  -3.1604   0.0000   0.2627
   9.500   1.1111   0.04875   0.03869  -0.0209  0.2220  1.0000  -3.3484   0.0000   0.2581
  10.000   1.1179   0.05549   0.04599  -0.0163  0.2031  1.0000  -3.4107   0.0000   0.2534
  10.500   1.1019   0.06307   0.05406  -0.0114  0.1904  1.0000  -3.4081   0.0000   0.2486
  11.000   1.0787   0.07068   0.06200  -0.0070  0.1812  1.0000  -3.3856   0.0000   0.2442
  11.500   1.0546   0.08052   0.07202  -0.0049  0.1771  1.0000  -3.3358   0.0000   0.2417
  12.500   0.8118   0.14366   0.13502  -0.0402  0.2420  1.0000  -2.0304   0.0000   0.2864
  13.000   0.7277   0.16573   0.15688  -0.0601  0.3634  1.0000  -1.5287   0.0000   0.3192
  13.500   0.7497   0.17487   0.16608  -0.0606  0.3392  1.0000  -1.5730   0.0000   0.3170
  14.000   0.7500   0.17959   0.17081  -0.0620  0.3208  1.0000  -1.5550   0.0000   0.3182
  14.500   0.7596   0.18828   0.17951  -0.0642  0.3116  1.0000  -1.5454   0.0000   0.3194
  15.000   0.7773   0.19589   0.18726  -0.0654  0.2937  1.0000  -1.5636   0.0000   0.3185
  15.500   0.7758   0.20057   0.19190  -0.0683  0.2778  1.0000  -1.5208   0.0000   0.3216
  16.000   0.8004   0.21140   0.20279  -0.0694  0.2636  1.0000  -1.5465   0.0000   0.3197
  16.500   0.8067   0.21564   0.20703  -0.0722  0.2479  1.0000  -1.5442   0.0000   0.3218
  17.000   0.8259   0.22643   0.21785  -0.0743  0.2402  1.0000  -1.5865   0.0000   0.3216
  17.500   0.8316   0.22973   0.22115  -0.0780  0.2260  1.0000  -1.5795   0.0000   0.3245
  18.000   0.8554   0.24255   0.23401  -0.0794  0.2181  1.0000  -1.6350   0.0000   0.3230
  18.500   0.8619   0.24454   0.23600  -0.0834  0.2021  1.0000  -1.6260   0.0000   0.3259
  19.000   0.8736   0.25150   0.24300  -0.0871  0.1928  1.0000  -1.6246   0.0000   0.3279
  19.500   0.8902   0.25829   0.24984  -0.0900  0.1812  1.0000  -1.6472   0.0000   0.3285
  20.000   0.9122   0.27224   0.26384  -0.0915  0.1757  1.0000  -1.6878   0.0000   0.3271


