xflr5 v6.32

 Calculated polar for: NACA 2412

 1 1 Reynolds number fixed          Mach number fixed         

 xtrf =   1.000 (top)        1.000 (bottom)
 Mach =   0.000     Re =     0.130 e 6     Ncrit =   9.000

  alpha     CL        CD       CDp       Cm    Top Xtr Bot Xtr   Cpmin    Chinge    XCp    
 ------- -------- --------- --------- -------- ------- ------- -------- --------- ---------
 -20.000  -0.6735   0.24538   0.24030   0.0383  1.0000  0.0409  -1.4443   0.0000   0.2859
 -19.500  -0.6575   0.23888   0.23379   0.0344  1.0000  0.0434  -1.4552   0.0000   0.2820
 -19.000  -0.6457   0.23391   0.22883   0.0283  1.0000  0.0464  -1.5716   0.0000   0.2742
 -18.500  -0.6468   0.23278   0.22776   0.0206  1.0000  0.0471  -1.7770   0.0000   0.2631
 -18.000  -0.6172   0.21791   0.21287   0.0215  1.0000  0.0487  -1.6411   0.0000   0.2663
 -17.500  -0.5985   0.21117   0.20611   0.0197  1.0000  0.0514  -1.5724   0.0000   0.2649
 -17.000  -0.5842   0.20483   0.19975   0.0161  1.0000  0.0564  -1.5792   0.0000   0.2601
 -16.500  -0.5981   0.20458   0.19959   0.0066  1.0000  0.0591  -1.8497   0.0000   0.2447
 -16.000  -0.5645   0.19072   0.18567   0.0079  1.0000  0.0610  -1.6662   0.0000   0.2477
 -15.500  -0.5458   0.18393   0.17887   0.0066  1.0000  0.0635  -1.5729   0.0000   0.2461
 -15.000  -0.5323   0.17735   0.17231   0.0039  1.0000  0.0669  -1.5395   0.0000   0.2419
 -14.500  -0.5341   0.17196   0.16695  -0.0022  1.0000  0.0716  -1.6501   0.0000   0.2312
 -14.000  -0.5486   0.16660   0.16166  -0.0101  1.0000  0.0725  -1.8521   0.0000   0.2176
 -13.500  -0.5098   0.15536   0.15039  -0.0064  1.0000  0.0753  -1.5955   0.0000   0.2235
 -13.000  -0.4939   0.14883   0.14387  -0.0076  1.0000  0.0797  -1.5180   0.0000   0.2211
 -12.500  -0.5106   0.14246   0.13757  -0.0156  1.0000  0.0864  -1.7366   0.0000   0.2067
 -12.000  -0.5039   0.13258   0.12773  -0.0175  1.0000  0.0887  -1.7908   0.0000   0.2028
 -11.500  -0.4763   0.12668   0.12178  -0.0158  1.0000  0.0940  -1.6646   0.0000   0.2047
 -11.000  -0.5062   0.11902   0.11423  -0.0264  1.0000  0.1024  -1.9341   0.0000   0.1867
 -10.500  -0.4711   0.11184   0.10703  -0.0216  1.0000  0.1081  -1.7376   0.0000   0.1932
 -10.000  -0.4677   0.10472   0.09996  -0.0243  1.0000  0.1147  -1.7594   0.0000   0.1876
  -9.500  -0.6202   0.06665   0.06194  -0.0542  1.0000  0.0740  -3.1157   0.0000   0.1531
  -9.000  -0.6442   0.05738   0.05247  -0.0525  1.0000  0.0697  -3.2625   0.0000   0.1597
  -8.500  -0.6764   0.04735   0.04190  -0.0480  1.0000  0.0670  -3.4639   0.0000   0.1706
  -8.000  -0.6868   0.03885   0.03256  -0.0424  1.0000  0.0666  -3.5806   0.0000   0.1801
  -7.500  -0.6725   0.03314   0.02602  -0.0376  1.0000  0.0690  -3.5398   0.0000   0.1862
  -7.000  -0.6449   0.02957   0.02160  -0.0336  1.0000  0.0725  -3.4020   0.0000   0.1904
  -6.500  -0.6103   0.02639   0.01830  -0.0312  1.0000  0.0801  -3.1526   0.0000   0.1917
  -6.000  -0.5713   0.02398   0.01544  -0.0287  1.0000  0.0887  -2.9240   0.0000   0.1929
  -5.500  -0.5293   0.02216   0.01355  -0.0268  1.0000  0.0989  -2.6998   0.0000   0.1927
  -5.000  -0.4855   0.02067   0.01203  -0.0253  1.0000  0.1140  -2.4850   0.0000   0.1914
  -4.500  -0.4411   0.01951   0.01079  -0.0239  1.0000  0.1342  -2.2636   0.0000   0.1894
  -4.000  -0.3961   0.01846   0.00989  -0.0230  0.9998  0.1629  -2.0387   0.0000   0.1857
  -3.500  -0.3094   0.01749   0.00923  -0.0301  0.9874  0.2259  -1.7125   0.0000   0.1461
  -3.000  -0.2266   0.01662   0.00885  -0.0364  0.9734  0.3234  -1.4450   0.0000   0.0820
  -2.500  -0.1474   0.01565   0.00858  -0.0417  0.9583  0.4690  -1.1915   0.0000  -0.0418
  -2.000  -0.0697   0.01472   0.00860  -0.0452  0.9438  0.6867  -0.9672   0.0000  -0.4130
  -1.500  -0.0009   0.01439   0.00875  -0.0452  0.9264  0.8607  -0.7799   0.0000  -48.7584
  -1.000   0.1092   0.01443   0.00868  -0.0538  0.9140  0.9618  -0.5713   0.0000   0.7464
  -0.500   0.2644   0.01391   0.00796  -0.0729  0.9065  1.0000  -0.5565   0.0000   0.5255
   0.000   0.3260   0.01329   0.00718  -0.0738  0.8784  1.0000  -0.6066   0.0000   0.4755
   0.500   0.3732   0.01297   0.00671  -0.0717  0.8451  1.0000  -0.6525   0.0000   0.4405
   1.000   0.4199   0.01279   0.00637  -0.0693  0.8108  1.0000  -0.7028   0.0000   0.4128
   1.500   0.4679   0.01272   0.00613  -0.0670  0.7772  1.0000  -0.7610   0.0000   0.3905
   2.000   0.5165   0.01280   0.00604  -0.0649  0.7442  1.0000  -0.8292   0.0000   0.3724
   2.500   0.5645   0.01304   0.00610  -0.0628  0.7110  1.0000  -0.9132   0.0000   0.3575
   3.000   0.6114   0.01336   0.00631  -0.0606  0.6772  1.0000  -1.0184   0.0000   0.3450
   3.500   0.6589   0.01373   0.00657  -0.0585  0.6440  1.0000  -1.1480   0.0000   0.3342
   4.000   0.7066   0.01413   0.00692  -0.0564  0.6105  1.0000  -1.3017   0.0000   0.3249
   4.500   0.7542   0.01455   0.00724  -0.0544  0.5761  1.0000  -1.4754   0.0000   0.3166
   5.000   0.8019   0.01500   0.00755  -0.0523  0.5402  1.0000  -1.6749   0.0000   0.3092
   5.500   0.8479   0.01549   0.00799  -0.0500  0.5014  1.0000  -1.8777   0.0000   0.3026
   6.000   0.8925   0.01596   0.00847  -0.0476  0.4587  1.0000  -2.1212   0.0000   0.2963
   6.500   0.9355   0.01652   0.00898  -0.0450  0.4114  1.0000  -2.3673   0.0000   0.2905
   7.000   0.9753   0.01721   0.00957  -0.0419  0.3549  1.0000  -2.6119   0.0000   0.2848
   7.500   1.0098   0.01834   0.01042  -0.0383  0.2857  1.0000  -2.8458   0.0000   0.2792
   8.000   1.0381   0.02016   0.01190  -0.0341  0.2093  1.0000  -3.0994   0.0000   0.2735
   8.500   1.0618   0.02258   0.01389  -0.0296  0.1533  1.0000  -3.3335   0.0000   0.2678
   9.000   1.0867   0.02509   0.01617  -0.0254  0.1213  1.0000  -3.5667   0.0000   0.2627
   9.500   1.1152   0.02781   0.01881  -0.0217  0.1015  1.0000  -3.8030   0.0000   0.2582
  10.000   1.1447   0.03050   0.02151  -0.0186  0.0865  1.0000  -4.0495   0.0000   0.2542
  10.500   1.1745   0.03295   0.02418  -0.0152  0.0771  1.0000  -4.2842   0.0000   0.2503
  11.000   1.2136   0.03694   0.02833  -0.0137  0.0697  1.0000  -4.5207   0.0000   0.2479
  11.500   1.2378   0.04009   0.03178  -0.0101  0.0639  1.0000  -4.7221   0.0000   0.2441
  12.000   1.2602   0.04469   0.03653  -0.0075  0.0583  1.0000  -4.9766   0.0000   0.2412
  12.500   1.2612   0.04880   0.04124  -0.0024  0.0556  1.0000  -5.1260   0.0000   0.2364
  13.000   1.2552   0.05410   0.04704   0.0018  0.0535  1.0000  -5.2314   0.0000   0.2323
  13.500   1.2401   0.06034   0.05374   0.0047  0.0520  1.0000  -5.2917   0.0000   0.2290
  14.000   1.2135   0.06811   0.06197   0.0059  0.0511  1.0000  -5.2817   0.0000   0.2271
  14.500   1.1652   0.07931   0.07371   0.0036  0.0512  1.0000  -5.1210   0.0000   0.2279
  15.000   1.0557   0.10281   0.09788  -0.0097  0.0539  1.0000  -4.4988   0.0000   0.2392
  15.500   0.9050   0.15013   0.14550  -0.0377  0.0606  1.0000  -3.1370   0.0000   0.2724
  16.000   0.8237   0.19220   0.18742  -0.0602  0.0977  1.0000  -1.8806   0.0000   0.3052
  16.500   0.8353   0.19952   0.19475  -0.0631  0.0912  1.0000  -1.9115   0.0000   0.3069
  17.000   0.8686   0.20663   0.20198  -0.0604  0.0879  1.0000  -2.1341   0.0000   0.3001
  17.500   0.8574   0.21705   0.21228  -0.0695  0.0854  1.0000  -1.9265   0.0000   0.3110
  18.000   0.8609   0.22437   0.21962  -0.0760  0.0786  1.0000  -1.8492   0.0000   0.3175
  18.500   0.8807   0.23099   0.22628  -0.0773  0.0747  1.0000  -1.9514   0.0000   0.3161
  19.500   0.8990   0.24658   0.24185  -0.0880  0.0645  1.0000  -1.8417   0.0000   0.3245
  20.000   0.9194   0.25303   0.24834  -0.0892  0.0608  1.0000  -1.9371   0.0000   0.3227


