xflr5 v6.32

 Calculated polar for: NACA 2412

 1 1 Reynolds number fixed          Mach number fixed         

 xtrf =   1.000 (top)        1.000 (bottom)
 Mach =   0.000     Re =     0.500 e 6     Ncrit =   9.000

  alpha     CL        CD       CDp       Cm    Top Xtr Bot Xtr   Cpmin    Chinge    XCp    
 ------- -------- --------- --------- -------- ------- ------- -------- --------- ---------
 -20.000  -0.6783   0.24271   0.24009   0.0395  1.0000  0.0175  -1.5563   0.0000   0.2869
 -19.500  -0.6634   0.23547   0.23285   0.0340  1.0000  0.0184  -1.6773   0.0000   0.2804
 -19.000  -0.6497   0.22828   0.22567   0.0294  1.0000  0.0186  -1.7527   0.0000   0.2750
 -18.500  -0.6357   0.22083   0.21822   0.0253  1.0000  0.0187  -1.8112   0.0000   0.2701
 -18.000  -0.6224   0.21302   0.21041   0.0214  1.0000  0.0188  -1.8855   0.0000   0.2652
 -17.500  -0.6102   0.20476   0.20215   0.0176  1.0000  0.0188  -1.9921   0.0000   0.2600
 -17.000  -0.5999   0.19602   0.19343   0.0156  1.0000  0.0201  -2.0169   0.0000   0.2579
 -16.500  -0.5823   0.19111   0.18850   0.0134  1.0000  0.0217  -1.8789   0.0000   0.2556
 -16.000  -0.5737   0.18348   0.18088   0.0076  1.0000  0.0265  -2.0241   0.0000   0.2462
 -14.500  -0.5455   0.15890   0.15630  -0.0034  1.0000  0.0269  -2.1506   0.0000   0.2277
 -14.000  -0.7984   0.08649   0.08376  -0.0328  1.0000  0.0198  -5.8986   0.0000   0.1910
 -13.500  -0.8610   0.06440   0.06135  -0.0488  1.0000  0.0193  -6.5269   0.0000   0.1764
 -13.000  -0.9017   0.04822   0.04477  -0.0634  1.0000  0.0192  -6.8405   0.0000   0.1641
 -12.500  -0.9503   0.03739   0.03340  -0.0678  1.0000  0.0194  -7.0865   0.0000   0.1644
 -12.000  -0.9801   0.03117   0.02670  -0.0618  1.0000  0.0203  -7.1821   0.0000   0.1736
 -11.500  -0.9657   0.02858   0.02393  -0.0575  1.0000  0.0214  -6.9288   0.0000   0.1778
 -11.000  -0.9428   0.02683   0.02202  -0.0534  1.0000  0.0225  -6.6123   0.0000   0.1815
 -10.500  -0.9192   0.02502   0.01998  -0.0489  1.0000  0.0237  -6.3077   0.0000   0.1854
 -10.000  -0.8938   0.02322   0.01795  -0.0445  1.0000  0.0249  -6.0055   0.0000   0.1895
  -9.500  -0.8652   0.02161   0.01611  -0.0404  1.0000  0.0259  -5.6884   0.0000   0.1932
  -9.000  -0.8328   0.02033   0.01465  -0.0367  1.0000  0.0266  -5.3503   0.0000   0.1963
  -8.500  -0.7892   0.01747   0.01150  -0.0359  0.9981  0.0292  -5.0378   0.0000   0.1953
  -8.000  -0.7202   0.01636   0.01030  -0.0394  0.9940  0.0328  -4.5537   0.0000   0.1864
  -7.500  -0.6510   0.01575   0.00958  -0.0426  0.9891  0.0362  -4.0721   0.0000   0.1760
  -7.000  -0.5841   0.01406   0.00781  -0.0457  0.9836  0.0418  -3.6512   0.0000   0.1634
  -6.500  -0.5080   0.01338   0.00701  -0.0501  0.9801  0.0471  -3.1842   0.0000   0.1430
  -6.000  -0.4436   0.01227   0.00591  -0.0522  0.9713  0.0569  -2.8495   0.0000   0.1240
  -5.500  -0.3697   0.01146   0.00513  -0.0562  0.9664  0.0705  -2.4951   0.0000   0.0894
  -5.000  -0.3068   0.01079   0.00446  -0.0577  0.9574  0.0869  -2.1793   0.0000   0.0530
  -4.500  -0.2445   0.01005   0.00387  -0.0590  0.9470  0.1151  -1.8779   0.0000  -0.0008
  -4.000  -0.1896   0.00947   0.00343  -0.0586  0.9316  0.1512  -1.6160   0.0000  -0.0697
  -3.500  -0.1345   0.00896   0.00304  -0.0583  0.9158  0.1967  -1.3922   0.0000  -0.1955
  -3.000  -0.0806   0.00845   0.00271  -0.0576  0.8965  0.2536  -1.1809   0.0000  -0.4808
  -2.500  -0.0271   0.00801   0.00244  -0.0569  0.8750  0.3206  -0.9900   0.0000  -1.8904
  -2.000   0.0258   0.00756   0.00221  -0.0560  0.8500  0.4043  -0.8263   0.0000   2.4564
  -1.500   0.0775   0.00706   0.00206  -0.0550  0.8231  0.5283  -0.6794   0.0000   0.9665
  -1.000   0.1288   0.00668   0.00198  -0.0538  0.7939  0.6506  -0.5513   0.0000   0.6691
  -0.500   0.1794   0.00640   0.00198  -0.0521  0.7625  0.7582  -0.5208   0.0000   0.5402
   0.000   0.2293   0.00629   0.00203  -0.0500  0.7295  0.8523  -0.5629   0.0000   0.4670
   0.500   0.2809   0.00638   0.00212  -0.0482  0.6953  0.9236  -0.6092   0.0000   0.4195
   1.000   0.3441   0.00663   0.00221  -0.0491  0.6599  0.9645  -0.6664   0.0000   0.3901
   1.500   0.4214   0.00693   0.00232  -0.0535  0.6235  0.9840  -0.7396   0.0000   0.3739
   2.000   0.5035   0.00718   0.00243  -0.0591  0.5877  0.9964  -0.8294   0.0000   0.3640
   2.500   0.5639   0.00741   0.00250  -0.0603  0.5549  1.0000  -0.9244   0.0000   0.3531
   3.000   0.6117   0.00764   0.00261  -0.0587  0.5247  1.0000  -1.0339   0.0000   0.3417
   3.500   0.6595   0.00792   0.00276  -0.0571  0.4946  1.0000  -1.1675   0.0000   0.3318
   4.000   0.7074   0.00823   0.00298  -0.0555  0.4637  1.0000  -1.3266   0.0000   0.3232
   4.500   0.7550   0.00858   0.00321  -0.0538  0.4310  1.0000  -1.5087   0.0000   0.3156
   5.000   0.8024   0.00901   0.00349  -0.0521  0.3942  1.0000  -1.7096   0.0000   0.3088
   5.500   0.8503   0.00949   0.00382  -0.0506  0.3502  1.0000  -1.9279   0.0000   0.3029
   6.000   0.8970   0.01013   0.00429  -0.0490  0.2998  1.0000  -2.1817   0.0000   0.2975
   6.500   0.9417   0.01101   0.00486  -0.0472  0.2395  1.0000  -2.4365   0.0000   0.2924
   7.000   0.9859   0.01199   0.00557  -0.0454  0.1824  1.0000  -2.6976   0.0000   0.2878
   7.500   1.0283   0.01313   0.00644  -0.0434  0.1295  1.0000  -2.9831   0.0000   0.2834
   8.000   1.0703   0.01428   0.00738  -0.0414  0.0927  1.0000  -3.3029   0.0000   0.2793
   8.500   1.1120   0.01541   0.00841  -0.0393  0.0704  1.0000  -3.6280   0.0000   0.2753
   9.000   1.1523   0.01657   0.00954  -0.0370  0.0568  1.0000  -3.9556   0.0000   0.2714
   9.500   1.1890   0.01791   0.01089  -0.0342  0.0466  1.0000  -4.2743   0.0000   0.2674
  10.000   1.2277   0.01896   0.01201  -0.0318  0.0410  1.0000  -4.6164   0.0000   0.2639
  10.500   1.2509   0.02074   0.01388  -0.0270  0.0359  1.0000  -4.8876   0.0000   0.2589
  11.000   1.2813   0.02202   0.01528  -0.0236  0.0331  1.0000  -5.2048   0.0000   0.2549
  11.500   1.3058   0.02373   0.01709  -0.0198  0.0302  1.0000  -5.5018   0.0000   0.2509
  12.000   1.3096   0.02706   0.02060  -0.0144  0.0273  1.0000  -5.7224   0.0000   0.2459
  12.500   1.3270   0.02968   0.02340  -0.0113  0.0263  1.0000  -6.0395   0.0000   0.2425
  13.000   1.3455   0.03237   0.02629  -0.0089  0.0251  1.0000  -6.3716   0.0000   0.2397
  13.500   1.3617   0.03550   0.02959  -0.0071  0.0236  1.0000  -6.6982   0.0000   0.2374
  14.000   1.3744   0.03913   0.03337  -0.0058  0.0220  1.0000  -7.0141   0.0000   0.2355
  14.500   1.3777   0.04408   0.03850  -0.0051  0.0207  1.0000  -7.2645   0.0000   0.2339
  15.000   1.3602   0.05152   0.04619  -0.0044  0.0194  1.0000  -7.3418   0.0000   0.2324
  15.500   1.3430   0.05945   0.05443  -0.0045  0.0187  1.0000  -7.4036   0.0000   0.2314
  16.000   1.3392   0.06637   0.06160  -0.0060  0.0184  1.0000  -7.5774   0.0000   0.2315
  16.500   1.3295   0.07438   0.06986  -0.0083  0.0182  1.0000  -7.6981   0.0000   0.2322
  17.000   1.3145   0.08366   0.07941  -0.0115  0.0179  1.0000  -7.7641   0.0000   0.2336
  17.500   1.2943   0.09420   0.09023  -0.0157  0.0176  1.0000  -7.7716   0.0000   0.2358
  18.000   1.2678   0.10618   0.10251  -0.0210  0.0175  1.0000  -7.7042   0.0000   0.2392
  18.500   1.2345   0.12028   0.11692  -0.0281  0.0174  1.0000  -7.5408   0.0000   0.2443
  19.000   1.1913   0.13738   0.13435  -0.0375  0.0173  1.0000  -7.2249   0.0000   0.2521


