xflr5 v6.32

 Calculated polar for: NACA 2412

 1 1 Reynolds number fixed          Mach number fixed         

 xtrf =   1.000 (top)        1.000 (bottom)
 Mach =   0.000     Re =     0.100 e 6     Ncrit =   9.000

  alpha     CL        CD       CDp       Cm    Top Xtr Bot Xtr   Cpmin    Chinge    XCp    
 ------- -------- --------- --------- -------- ------- ------- -------- --------- ---------
 -20.000  -0.6736   0.24612   0.24035   0.0375  1.0000  0.0503  -1.4587   0.0000   0.2849
 -19.500  -0.6569   0.23965   0.23387   0.0342  1.0000  0.0531  -1.4481   0.0000   0.2818
 -19.000  -0.6420   0.23345   0.22768   0.0299  1.0000  0.0569  -1.4865   0.0000   0.2770
 -18.500  -0.6418   0.23351   0.22779   0.0217  1.0000  0.0590  -1.6834   0.0000   0.2652
 -18.000  -0.6185   0.22023   0.21450   0.0207  1.0000  0.0605  -1.6304   0.0000   0.2651
 -17.500  -0.5968   0.21277   0.20702   0.0198  1.0000  0.0656  -1.5234   0.0000   0.2653
 -17.000  -0.5888   0.20841   0.20268   0.0143  1.0000  0.0715  -1.5996   0.0000   0.2571
 -16.500  -0.6016   0.20880   0.20314   0.0067  1.0000  0.0725  -1.7914   0.0000   0.2450
 -16.000  -0.5625   0.19278   0.18704   0.0083  1.0000  0.0746  -1.5974   0.0000   0.2485
 -15.500  -0.5435   0.18573   0.17998   0.0069  1.0000  0.0780  -1.5147   0.0000   0.2468
 -15.000  -0.5314   0.17932   0.17358   0.0038  1.0000  0.0829  -1.4993   0.0000   0.2419
 -14.500  -0.5495   0.17732   0.17166  -0.0043  1.0000  0.0867  -1.6974   0.0000   0.2279
 -14.000  -0.5232   0.16553   0.15988  -0.0043  1.0000  0.0889  -1.5887   0.0000   0.2277
 -13.500  -0.4997   0.15813   0.15246  -0.0044  1.0000  0.0938  -1.4680   0.0000   0.2273
 -13.000  -0.5053   0.15290   0.14728  -0.0094  1.0000  0.1014  -1.5602   0.0000   0.2181
 -12.500  -0.5097   0.14443   0.13889  -0.0140  1.0000  0.1041  -1.6820   0.0000   0.2099
 -12.000  -0.4760   0.13745   0.13183  -0.0117  1.0000  0.1136  -1.5448   0.0000   0.2129
 -11.500  -0.5179   0.13282   0.12740  -0.0230  1.0000  0.1195  -1.8399   0.0000   0.1946
 -11.000  -0.4645   0.12312   0.11758  -0.0164  1.0000  0.1271  -1.5956   0.0000   0.2033
 -10.500  -0.4965   0.11739   0.11201  -0.0254  1.0000  0.1370  -1.8053   0.0000   0.1885
 -10.000  -0.4732   0.10776   0.10239  -0.0239  1.0000  0.1408  -1.7321   0.0000   0.1894
  -9.500  -0.4555   0.10137   0.09601  -0.0236  1.0000  0.1483  -1.6703   0.0000   0.1886
  -8.500  -0.6356   0.05665   0.05103  -0.0489  1.0000  0.0843  -3.0815   0.0000   0.1649
  -8.000  -0.6530   0.04746   0.04130  -0.0448  1.0000  0.0825  -3.2076   0.0000   0.1736
  -7.500  -0.6532   0.03970   0.03269  -0.0400  1.0000  0.0832  -3.2636   0.0000   0.1812
  -7.000  -0.6353   0.03472   0.02665  -0.0355  1.0000  0.0870  -3.2084   0.0000   0.1869
  -6.500  -0.6037   0.03129   0.02319  -0.0329  1.0000  0.0963  -2.9715   0.0000   0.1885
  -6.000  -0.5680   0.02778   0.01884  -0.0298  1.0000  0.1032  -2.8138   0.0000   0.1907
  -5.500  -0.5273   0.02503   0.01601  -0.0279  1.0000  0.1143  -2.6154   0.0000   0.1905
  -5.000  -0.4854   0.02332   0.01420  -0.0261  1.0000  0.1323  -2.4170   0.0000   0.1899
  -4.500  -0.4400   0.02163   0.01236  -0.0247  1.0000  0.1532  -2.2154   0.0000   0.1876
  -4.000  -0.3957   0.02039   0.01129  -0.0236  1.0000  0.1857  -1.9985   0.0000   0.1843
  -3.500  -0.3515   0.01944   0.01055  -0.0226  1.0000  0.2318  -1.7833   0.0000   0.1799
  -3.000  -0.3076   0.01869   0.01017  -0.0218  1.0000  0.2999  -1.5880   0.0000   0.1734
  -2.500  -0.2223   0.01780   0.01002  -0.0287  0.9861  0.4444  -1.3259   0.0000   0.1145
  -2.000  -0.1436   0.01702   0.01039  -0.0327  0.9689  0.6859  -1.0794   0.0000   0.0145
  -1.500  -0.0646   0.01710   0.01100  -0.0340  0.9511  0.9198  -0.8727   0.0000  -0.2894
  -1.000   0.0914   0.01732   0.01084  -0.0537  0.9419  1.0000  -0.5950   0.0000   0.8421
  -0.500   0.1859   0.01707   0.01033  -0.0621  0.9196  1.0000  -0.5081   0.0000   0.5844
   0.000   0.2692   0.01669   0.00979  -0.0674  0.8943  1.0000  -0.5676   0.0000   0.4996
   0.500   0.3395   0.01630   0.00927  -0.0697  0.8664  1.0000  -0.6254   0.0000   0.4535
   1.000   0.4010   0.01596   0.00882  -0.0698  0.8370  1.0000  -0.6837   0.0000   0.4219
   1.500   0.4565   0.01572   0.00847  -0.0686  0.8065  1.0000  -0.7459   0.0000   0.3976
   2.000   0.5091   0.01561   0.00827  -0.0668  0.7755  1.0000  -0.8161   0.0000   0.3780
   2.500   0.5600   0.01566   0.00819  -0.0647  0.7443  1.0000  -0.9012   0.0000   0.3620
   3.000   0.6101   0.01587   0.00826  -0.0626  0.7128  1.0000  -1.0085   0.0000   0.3486
   3.500   0.6568   0.01626   0.00858  -0.0602  0.6793  1.0000  -1.1351   0.0000   0.3372
   4.000   0.7044   0.01666   0.00899  -0.0579  0.6453  1.0000  -1.2857   0.0000   0.3274
   4.500   0.7524   0.01707   0.00934  -0.0557  0.6101  1.0000  -1.4561   0.0000   0.3187
   5.000   0.8008   0.01746   0.00963  -0.0534  0.5734  1.0000  -1.6560   0.0000   0.3109
   5.500   0.8487   0.01792   0.00996  -0.0511  0.5346  1.0000  -1.8625   0.0000   0.3039
   6.000   0.8925   0.01837   0.01049  -0.0483  0.4902  1.0000  -2.0991   0.0000   0.2972
   6.500   0.9357   0.01888   0.01091  -0.0454  0.4430  1.0000  -2.3449   0.0000   0.2910
   7.000   0.9747   0.01947   0.01143  -0.0419  0.3874  1.0000  -2.5862   0.0000   0.2849
   7.500   1.0081   0.02040   0.01214  -0.0378  0.3196  1.0000  -2.8154   0.0000   0.2788
   8.000   1.0335   0.02223   0.01355  -0.0330  0.2425  1.0000  -3.0516   0.0000   0.2726
   8.500   1.0571   0.02475   0.01569  -0.0284  0.1803  1.0000  -3.2757   0.0000   0.2668
   9.000   1.0833   0.02742   0.01812  -0.0243  0.1417  1.0000  -3.5040   0.0000   0.2618
   9.500   1.1176   0.03069   0.02119  -0.0215  0.1181  1.0000  -3.7436   0.0000   0.2580
  10.000   1.1539   0.03392   0.02449  -0.0192  0.1013  1.0000  -3.9879   0.0000   0.2548
  10.500   1.1873   0.03692   0.02760  -0.0167  0.0888  1.0000  -4.2305   0.0000   0.2515
  11.000   1.2206   0.04141   0.03256  -0.0142  0.0813  1.0000  -4.4130   0.0000   0.2484
  11.500   1.2478   0.04575   0.03720  -0.0113  0.0756  1.0000  -4.5940   0.0000   0.2452
  12.000   1.2586   0.05186   0.04375  -0.0076  0.0712  1.0000  -4.7603   0.0000   0.2415
  12.500   1.2382   0.05640   0.04891  -0.0007  0.0681  1.0000  -4.8112   0.0000   0.2352
  13.000   1.2148   0.06233   0.05534   0.0037  0.0657  1.0000  -4.8398   0.0000   0.2308
  13.500   1.1744   0.07090   0.06446   0.0054  0.0652  1.0000  -4.7545   0.0000   0.2284
  14.000   1.1052   0.08447   0.07861   0.0016  0.0663  1.0000  -4.4793   0.0000   0.2306
  14.500   1.0077   0.10751   0.10210  -0.0115  0.0702  1.0000  -3.9366   0.0000   0.2426
  15.500   0.8065   0.18802   0.18257  -0.0590  0.1290  1.0000  -1.7560   0.0000   0.3062
  16.000   0.8528   0.19554   0.19021  -0.0543  0.1203  1.0000  -2.0351   0.0000   0.2959
  16.500   0.8257   0.20388   0.19843  -0.0652  0.1150  1.0000  -1.7829   0.0000   0.3106
  17.000   0.8389   0.21086   0.20543  -0.0680  0.1069  1.0000  -1.8172   0.0000   0.3119
  17.500   0.8840   0.22438   0.21909  -0.0630  0.1028  1.0000  -2.0812   0.0000   0.3015
  18.000   0.8575   0.22707   0.22161  -0.0764  0.0982  1.0000  -1.7798   0.0000   0.3185
  18.500   0.8712   0.23399   0.22860  -0.0799  0.0918  1.0000  -1.8017   0.0000   0.3203
  19.000   0.9004   0.24374   0.23843  -0.0786  0.0880  1.0000  -1.9632   0.0000   0.3150
  19.500   0.8975   0.24949   0.24410  -0.0875  0.0843  1.0000  -1.7939   0.0000   0.3243
  20.000   0.9132   0.25523   0.24986  -0.0911  0.0756  1.0000  -1.8167   0.0000   0.3257


