xflr5 v6.32

 Calculated polar for: NACA 2412

 1 1 Reynolds number fixed          Mach number fixed         

 xtrf =   1.000 (top)        1.000 (bottom)
 Mach =   0.000     Re =     0.160 e 6     Ncrit =   9.000

  alpha     CL        CD       CDp       Cm    Top Xtr Bot Xtr   Cpmin    Chinge    XCp    
 ------- -------- --------- --------- -------- ------- ------- -------- --------- ---------
 -20.000  -0.2604   0.10549   0.10187  -0.0168  1.0000  0.0406  -0.5854   0.0000   0.1889
 -19.500  -0.2456   0.09937   0.09576  -0.0194  1.0000  0.0441  -0.5970   0.0000   0.1753
 -19.000  -0.2434   0.09670   0.09310  -0.0237  1.0000  0.0469  -0.7370   0.0000   0.1569
 -18.500  -0.2243   0.08781   0.08425  -0.0257  1.0000  0.0481  -0.7258   0.0000   0.1414
 -18.000  -0.2015   0.08139   0.07785  -0.0265  1.0000  0.0525  -0.6134   0.0000   0.1268
 -17.500  -0.1886   0.07640   0.07288  -0.0287  1.0000  0.0566  -0.6085   0.0000   0.1078
 -17.000  -0.1900   0.07432   0.07083  -0.0323  1.0000  0.0589  -0.7082   0.0000   0.0895
 -16.500  -0.1857   0.06950   0.06608  -0.0345  1.0000  0.0595  -0.7509   0.0000   0.0739
 -16.000  -0.1557   0.06188   0.05848  -0.0327  1.0000  0.0620  -0.5797   0.0000   0.0538
 -15.500  -0.1442   0.05804   0.05470  -0.0325  1.0000  0.0654  -0.5263   0.0000   0.0406
 -15.000  -0.1420   0.05520   0.05192  -0.0329  1.0000  0.0708  -0.5417   0.0000   0.0345
 -14.500  -0.1620   0.05471   0.05150  -0.0349  1.0000  0.0724  -0.7078   0.0000   0.0475
 -14.000  -0.1377   0.04882   0.04570  -0.0305  1.0000  0.0755  -0.5961   0.0000   0.0449
 -13.500  -0.1346   0.04682   0.04378  -0.0281  1.0000  0.0804  -0.5771   0.0000   0.0584
 -13.000  -0.1594   0.04673   0.04375  -0.0292  1.0000  0.0866  -0.7244   0.0000   0.0797
 -12.500  -0.1473   0.04303   0.04014  -0.0253  1.0000  0.0899  -0.6479   0.0000   0.0930
 -12.000  -0.1461   0.04149   0.03868  -0.0225  1.0000  0.0935  -0.6145   0.0000   0.1108
 -11.500  -0.1474   0.03795   0.03516  -0.0282  0.9950  0.1018  -0.7008   0.0000   0.0727
 -11.000  -0.0984   0.02990   0.02707  -0.0351  0.9830  0.1065  -0.6153   0.0000  -0.0839
 -10.500  -0.0850   0.02557   0.02274  -0.0422  0.9709  0.1185  -0.6481   0.0000  -0.2207
 -10.000  -0.0321   0.02022   0.01737  -0.0465  0.9565  0.1295  -0.4942   0.0000  -1.1254
  -9.500  -0.1997   0.00401   0.00085  -0.0759  0.9450  0.0721  -1.9324   0.0000  -0.1260
  -9.000  -0.2465   0.00209  -0.00134  -0.0795  0.9272  0.0713  -2.1257   0.0000  -0.0704
  -8.500  -0.2844   0.00115  -0.00260  -0.0789  0.9091  0.0714  -2.2281   0.0000  -0.0262
  -8.000  -0.3136   0.00063  -0.00347  -0.0757  0.8918  0.0723  -2.2668   0.0000   0.0095
  -7.500  -0.2830   0.00029  -0.00386  -0.0762  0.8781  0.0812  -2.0505   0.0000  -0.0175
  -7.000  -0.3030   0.00018  -0.00425  -0.0693  0.8557  0.0842  -2.0249   0.0000   0.0228
  -6.500  -0.3227   0.00011  -0.00460  -0.0609  0.8331  0.0866  -1.9973   0.0000   0.0624
  -6.000  -0.2910   0.00007  -0.00465  -0.0588  0.8117  0.0967  -1.8310   0.0000   0.0497
  -5.500  -0.2458   0.00003  -0.00480  -0.0581  0.8005  0.1146  -1.6103   0.0000   0.0163
  -5.000  -0.2421   0.00002  -0.00483  -0.0518  0.7760  0.1261  -1.5081   0.0000   0.0389
  -4.500  -0.2520   0.00002  -0.00496  -0.0432  0.7518  0.1365  -1.4395   0.0000   0.0810
  -4.000  -0.2353   0.00001  -0.00490  -0.0383  0.7341  0.1592  -1.2929   0.0000   0.0899
  -3.500  -0.2156   0.00001  -0.00481  -0.0335  0.7176  0.1881  -1.1373   0.0000   0.0977
  -3.000  -0.2254   0.00001  -0.00478  -0.0254  0.6920  0.2088  -1.0743   0.0000   0.1399
  -2.500  -0.2324   0.00001  -0.00473  -0.0180  0.6684  0.2341  -1.0098   0.0000   0.1744
  -2.000  -0.1985   0.00001  -0.00470  -0.0144  0.6587  0.2903  -0.8473   0.0000   0.1798
  -1.500  -0.2108   0.00001  -0.00458  -0.0073  0.6328  0.3188  -0.7969   0.0000   0.2170
  -1.000  -0.2138   0.00001  -0.00444  -0.0013  0.6100  0.3570  -0.7262   0.0000   0.2448
  -0.500  -0.1814   0.00001  -0.00425   0.0023  0.6002  0.4282  -0.5853   0.0000   0.2636
   0.000  -0.1361   0.00000  -0.00403   0.0055  0.5949  0.5159  -0.4350   0.0000   0.2912
   0.500   0.3783   0.01118   0.00536  -0.0703  0.8249  1.0000  -0.6594   0.0000   0.4340
   1.000   0.4224   0.01112   0.00514  -0.0678  0.7878  1.0000  -0.7079   0.0000   0.4081
   1.500   0.4688   0.01116   0.00498  -0.0655  0.7521  1.0000  -0.7651   0.0000   0.3870
   2.000   0.5165   0.01131   0.00495  -0.0635  0.7177  1.0000  -0.8328   0.0000   0.3696
   2.500   0.5646   0.01158   0.00500  -0.0616  0.6843  1.0000  -0.9172   0.0000   0.3553
   3.000   0.6119   0.01191   0.00519  -0.0596  0.6511  1.0000  -1.0238   0.0000   0.3432
   3.500   0.6591   0.01228   0.00545  -0.0576  0.6182  1.0000  -1.1541   0.0000   0.3328
   4.000   0.7064   0.01267   0.00579  -0.0556  0.5851  1.0000  -1.3084   0.0000   0.3237
   4.500   0.7536   0.01308   0.00612  -0.0536  0.5509  1.0000  -1.4831   0.0000   0.3156
   5.000   0.8006   0.01352   0.00645  -0.0516  0.5150  1.0000  -1.6816   0.0000   0.3084
   5.500   0.8470   0.01405   0.00683  -0.0495  0.4774  1.0000  -1.8866   0.0000   0.3020
   6.000   0.8920   0.01451   0.00736  -0.0473  0.4348  1.0000  -2.1328   0.0000   0.2960
   6.500   0.9354   0.01511   0.00786  -0.0449  0.3873  1.0000  -2.3809   0.0000   0.2904
   7.000   0.9760   0.01588   0.00849  -0.0422  0.3290  1.0000  -2.6283   0.0000   0.2850
   7.500   1.0117   0.01709   0.00941  -0.0389  0.2591  1.0000  -2.8667   0.0000   0.2797
   8.000   1.0418   0.01889   0.01085  -0.0351  0.1850  1.0000  -3.1342   0.0000   0.2743
   8.500   1.0678   0.02113   0.01272  -0.0309  0.1348  1.0000  -3.3808   0.0000   0.2689
   9.000   1.0946   0.02332   0.01480  -0.0268  0.1070  1.0000  -3.6266   0.0000   0.2638
   9.500   1.1192   0.02562   0.01702  -0.0227  0.0892  1.0000  -3.8682   0.0000   0.2589
  10.000   1.1442   0.02783   0.01936  -0.0185  0.0774  1.0000  -4.1049   0.0000   0.2542
  10.500   1.1717   0.03077   0.02236  -0.0151  0.0691  1.0000  -4.3356   0.0000   0.2502
  11.000   1.1996   0.03335   0.02504  -0.0120  0.0625  1.0000  -4.5781   0.0000   0.2466
  11.500   1.2276   0.03691   0.02880  -0.0093  0.0566  1.0000  -4.8002   0.0000   0.2434
  12.000   1.2451   0.03971   0.03186  -0.0057  0.0518  1.0000  -5.0441   0.0000   0.2397
  12.500   1.2684   0.04372   0.03601  -0.0033  0.0483  1.0000  -5.3268   0.0000   0.2369
  13.000   1.2736   0.04950   0.04230   0.0001  0.0463  1.0000  -5.4764   0.0000   0.2335
  13.500   1.2643   0.05493   0.04824   0.0034  0.0450  1.0000  -5.5714   0.0000   0.2300
  14.000   1.2435   0.06200   0.05584   0.0053  0.0440  1.0000  -5.5914   0.0000   0.2276
  14.500   1.2100   0.07122   0.06557   0.0047  0.0435  1.0000  -5.5250   0.0000   0.2270
  15.000   1.1617   0.08356   0.07842   0.0006  0.0435  1.0000  -5.3450   0.0000   0.2293
  15.500   1.0944   0.10117   0.09652  -0.0089  0.0442  1.0000  -4.9932   0.0000   0.2370
  16.000   0.9911   0.13134   0.12706  -0.0278  0.0463  1.0000  -4.2266   0.0000   0.2565
  16.500   0.8387   0.19712   0.19282  -0.0627  0.0772  1.0000  -1.9774   0.0000   0.3059
  17.000   0.8610   0.20324   0.19898  -0.0628  0.0743  1.0000  -2.1221   0.0000   0.3033
  17.500   0.8811   0.21361   0.20940  -0.0622  0.0724  1.0000  -2.2433   0.0000   0.3001
  18.000   0.8636   0.22285   0.21857  -0.0756  0.0678  1.0000  -1.9050   0.0000   0.3166
  18.500   0.8812   0.22865   0.22440  -0.0777  0.0618  1.0000  -2.0055   0.0000   0.3163
  19.500   0.4019   0.09842   0.09497  -0.0188  0.0696  1.0000  -0.7355   0.0000   0.2926
  20.000   0.4153   0.10501   0.10157  -0.0220  0.0643  1.0000  -0.7411   0.0000   0.2978


