xflr5 v6.32

 Calculated polar for: NACA 2412

 1 1 Reynolds number fixed          Mach number fixed         

 xtrf =   1.000 (top)        1.000 (bottom)
 Mach =   0.000     Re =     0.200 e 6     Ncrit =   9.000

  alpha     CL        CD       CDp       Cm    Top Xtr Bot Xtr   Cpmin    Chinge    XCp    
 ------- -------- --------- --------- -------- ------- ------- -------- --------- ---------
 -20.000  -0.6761   0.24368   0.23957   0.0382  1.0000  0.0290  -1.5221   0.0000   0.2854
 -19.500  -0.6596   0.23739   0.23328   0.0348  1.0000  0.0303  -1.4937   0.0000   0.2824
 -19.000  -0.6437   0.23083   0.22672   0.0312  1.0000  0.0321  -1.4943   0.0000   0.2786
 -18.500  -0.6292   0.22396   0.21985   0.0266  1.0000  0.0350  -1.5612   0.0000   0.2730
 -18.000  -0.6263   0.21945   0.21537   0.0187  1.0000  0.0362  -1.8066   0.0000   0.2612
 -17.500  -0.6136   0.20897   0.20491   0.0156  1.0000  0.0369  -1.8892   0.0000   0.2571
 -17.000  -0.5891   0.20167   0.19759   0.0158  1.0000  0.0387  -1.7056   0.0000   0.2592
 -16.500  -0.5731   0.19549   0.19138   0.0133  1.0000  0.0413  -1.6522   0.0000   0.2561
 -16.000  -0.5638   0.18895   0.18485   0.0083  1.0000  0.0460  -1.7232   0.0000   0.2482
 -15.500  -0.5709   0.18373   0.17967   0.0003  1.0000  0.0471  -1.9501   0.0000   0.2345
 -15.000  -0.5500   0.17295   0.16889   0.0003  1.0000  0.0484  -1.8305   0.0000   0.2349
 -14.500  -0.5298   0.16649   0.16242  -0.0004  1.0000  0.0499  -1.6920   0.0000   0.2341
 -14.000  -0.5161   0.16001   0.15595  -0.0025  1.0000  0.0522  -1.6266   0.0000   0.2305
 -13.500  -0.5075   0.15287   0.14883  -0.0056  1.0000  0.0556  -1.6243   0.0000   0.2246
 -13.000  -0.5239   0.14427   0.14029  -0.0152  1.0000  0.0590  -1.9028   0.0000   0.2074
 -12.500  -0.5228   0.13327   0.12933  -0.0180  1.0000  0.0601  -1.9712   0.0000   0.2022
 -12.000  -0.4971   0.12822   0.12427  -0.0159  1.0000  0.0626  -1.8102   0.0000   0.2052
 -11.500  -0.4870   0.12163   0.11766  -0.0178  1.0000  0.0670  -1.8098   0.0000   0.2012
 -10.500  -0.6443   0.06273   0.05881  -0.0560  1.0000  0.0441  -3.8033   0.0000   0.1513
 -10.000  -0.7282   0.04930   0.04493  -0.0584  1.0000  0.0426  -4.2630   0.0000   0.1593
  -9.500  -0.7604   0.04116   0.03613  -0.0525  1.0000  0.0427  -4.4361   0.0000   0.1712
  -9.000  -0.7627   0.03541   0.02968  -0.0466  1.0000  0.0439  -4.4339   0.0000   0.1796
  -8.500  -0.7449   0.03249   0.02617  -0.0416  1.0000  0.0467  -4.2755   0.0000   0.1852
  -8.000  -0.7259   0.02740   0.02059  -0.0374  1.0000  0.0497  -4.1436   0.0000   0.1900
  -7.500  -0.6933   0.02511   0.01806  -0.0341  1.0000  0.0531  -3.8908   0.0000   0.1927
  -7.000  -0.6570   0.02307   0.01567  -0.0311  1.0000  0.0573  -3.6382   0.0000   0.1949
  -6.500  -0.6181   0.02064   0.01294  -0.0287  1.0000  0.0623  -3.3757   0.0000   0.1961
  -6.000  -0.5769   0.01975   0.01198  -0.0267  1.0000  0.0703  -3.0671   0.0000   0.1966
  -5.500  -0.5219   0.01826   0.01046  -0.0275  0.9975  0.0809  -2.7845   0.0000   0.1905
  -5.000  -0.4426   0.01696   0.00914  -0.0327  0.9888  0.0982  -2.4621   0.0000   0.1690
  -4.500  -0.3604   0.01584   0.00810  -0.0387  0.9801  0.1273  -2.1229   0.0000   0.1353
  -4.000  -0.2860   0.01487   0.00732  -0.0430  0.9677  0.1711  -1.8102   0.0000   0.0920
  -3.500  -0.2124   0.01401   0.00676  -0.0470  0.9560  0.2378  -1.5351   0.0000   0.0199
  -3.000  -0.1304   0.01307   0.00621  -0.0527  0.9465  0.3339  -1.2681   0.0000  -0.1656
  -2.500  -0.0634   0.01213   0.00582  -0.0550  0.9314  0.4564  -1.0443   0.0000  -0.6365
  -2.000   0.0011   0.01116   0.00552  -0.0561  0.9169  0.6260  -0.8616   0.0000  49.9819
  -1.500   0.0618   0.01041   0.00525  -0.0553  0.9014  0.7717  -0.6978   0.0000   1.1546
  -1.000   0.1154   0.01010   0.00515  -0.0526  0.8793  0.8768  -0.5646   0.0000   0.7087
  -0.500   0.1861   0.01005   0.00504  -0.0537  0.8562  0.9439  -0.5211   0.0000   0.5386
   0.000   0.2802   0.01000   0.00483  -0.0604  0.8302  0.9795  -0.5873   0.0000   0.4644
   0.500   0.3762   0.00985   0.00445  -0.0683  0.7989  1.0000  -0.6607   0.0000   0.4297
   1.000   0.4219   0.00982   0.00423  -0.0663  0.7618  1.0000  -0.7102   0.0000   0.4049
   1.500   0.4686   0.00991   0.00412  -0.0644  0.7251  1.0000  -0.7675   0.0000   0.3846
   2.000   0.5159   0.01010   0.00412  -0.0625  0.6901  1.0000  -0.8349   0.0000   0.3678
   2.500   0.5635   0.01038   0.00418  -0.0607  0.6564  1.0000  -0.9190   0.0000   0.3539
   3.000   0.6111   0.01072   0.00435  -0.0588  0.6238  1.0000  -1.0266   0.0000   0.3421
   3.500   0.6584   0.01106   0.00459  -0.0569  0.5916  1.0000  -1.1575   0.0000   0.3319
   4.000   0.7056   0.01144   0.00490  -0.0550  0.5592  1.0000  -1.3126   0.0000   0.3229
   4.500   0.7527   0.01183   0.00521  -0.0531  0.5254  1.0000  -1.4885   0.0000   0.3150
   5.000   0.7996   0.01226   0.00555  -0.0512  0.4898  1.0000  -1.6873   0.0000   0.3080
   5.500   0.8459   0.01277   0.00592  -0.0492  0.4523  1.0000  -1.8939   0.0000   0.3016
   6.000   0.8919   0.01325   0.00643  -0.0473  0.4101  1.0000  -2.1433   0.0000   0.2959
   6.500   0.9358   0.01389   0.00694  -0.0451  0.3609  1.0000  -2.3934   0.0000   0.2905
   7.000   0.9770   0.01476   0.00760  -0.0426  0.3002  1.0000  -2.6434   0.0000   0.2854
   7.500   1.0140   0.01603   0.00855  -0.0397  0.2299  1.0000  -2.8898   0.0000   0.2803
   8.000   1.0463   0.01777   0.00994  -0.0363  0.1612  1.0000  -3.1689   0.0000   0.2752
   8.500   1.0754   0.01979   0.01168  -0.0324  0.1179  1.0000  -3.4304   0.0000   0.2701
   9.000   1.1055   0.02165   0.01348  -0.0288  0.0929  1.0000  -3.6974   0.0000   0.2654
   9.500   1.1319   0.02363   0.01544  -0.0247  0.0778  1.0000  -3.9535   0.0000   0.2605
  10.000   1.1528   0.02594   0.01785  -0.0200  0.0683  1.0000  -4.1797   0.0000   0.2553
  10.500   1.1747   0.02837   0.02029  -0.0159  0.0610  1.0000  -4.4176   0.0000   0.2508
  11.000   1.1994   0.03101   0.02313  -0.0124  0.0552  1.0000  -4.6491   0.0000   0.2469
  11.500   1.2201   0.03342   0.02562  -0.0091  0.0499  1.0000  -4.8977   0.0000   0.2432
  12.000   1.2429   0.03719   0.02956  -0.0062  0.0459  1.0000  -5.1293   0.0000   0.2400
  12.500   1.2608   0.04047   0.03321  -0.0032  0.0432  1.0000  -5.3886   0.0000   0.2367
  13.000   1.2737   0.04423   0.03725  -0.0005  0.0407  1.0000  -5.6317   0.0000   0.2338
  13.500   1.2830   0.04842   0.04165   0.0018  0.0388  1.0000  -5.8654   0.0000   0.2311
  14.000   1.2825   0.05502   0.04855   0.0039  0.0369  1.0000  -6.0010   0.0000   0.2287
  14.500   1.2574   0.06370   0.05776   0.0049  0.0362  1.0000  -5.9754   0.0000   0.2269
  15.000   1.2290   0.07248   0.06701   0.0037  0.0358  1.0000  -5.9444   0.0000   0.2268
  15.500   1.1894   0.08397   0.07897  -0.0003  0.0357  1.0000  -5.8155   0.0000   0.2289
  16.000   1.1372   0.09909   0.09453  -0.0078  0.0358  1.0000  -5.5625   0.0000   0.2345
  16.500   1.0656   0.12074   0.11660  -0.0205  0.0363  1.0000  -5.0781   0.0000   0.2461
  18.000   0.8714   0.21984   0.21602  -0.0735  0.0573  1.0000  -2.0580   0.0000   0.3131
  18.500   0.8801   0.22771   0.22389  -0.0790  0.0514  1.0000  -2.0162   0.0000   0.3178
  19.000   0.9004   0.23312   0.22933  -0.0800  0.0487  1.0000  -2.1566   0.0000   0.3159
  19.500   0.9178   0.24321   0.23944  -0.0803  0.0470  1.0000  -2.2266   0.0000   0.3137
  20.000   0.9159   0.25173   0.24791  -0.0923  0.0435  1.0000  -1.8701   0.0000   0.3264


