xflr5 v6.32

 Calculated polar for: NACA 2412

 1 1 Reynolds number fixed          Mach number fixed         

 xtrf =   1.000 (top)        1.000 (bottom)
 Mach =   0.000     Re =     0.080 e 6     Ncrit =   9.000

  alpha     CL        CD       CDp       Cm    Top Xtr Bot Xtr   Cpmin    Chinge    XCp    
 ------- -------- --------- --------- -------- ------- ------- -------- --------- ---------
 -20.000  -0.6759   0.24814   0.24172   0.0360  1.0000  0.0608  -1.5032   0.0000   0.2825
 -19.500  -0.6570   0.24050   0.23406   0.0337  1.0000  0.0638  -1.4560   0.0000   0.2812
 -19.000  -0.6410   0.23411   0.22767   0.0302  1.0000  0.0679  -1.4636   0.0000   0.2776
 -18.500  -0.6369   0.23337   0.22697   0.0229  1.0000  0.0721  -1.6053   0.0000   0.2674
 -18.000  -0.6140   0.22104   0.21464   0.0221  1.0000  0.0753  -1.5354   0.0000   0.2678
 -17.500  -0.5961   0.21414   0.20773   0.0198  1.0000  0.0800  -1.4950   0.0000   0.2655
 -17.000  -0.5847   0.20874   0.20229   0.0155  1.0000  0.0850  -1.5269   0.0000   0.2593
 -16.500  -0.5991   0.21103   0.20467   0.0079  1.0000  0.0869  -1.7059   0.0000   0.2472
 -16.000  -0.5609   0.19460   0.18820   0.0087  1.0000  0.0896  -1.5424   0.0000   0.2495
 -15.500  -0.5419   0.18739   0.18098   0.0072  1.0000  0.0941  -1.4704   0.0000   0.2476
 -15.000  -0.5338   0.18184   0.17545   0.0034  1.0000  0.1003  -1.4865   0.0000   0.2413
 -14.500  -0.5604   0.18234   0.17606  -0.0049  1.0000  0.1027  -1.7007   0.0000   0.2273
 -14.000  -0.5102   0.16703   0.16069  -0.0016  1.0000  0.1076  -1.4541   0.0000   0.2326
 -13.500  -0.4993   0.16072   0.15440  -0.0039  1.0000  0.1153  -1.4299   0.0000   0.2283
 -13.000  -0.5350   0.15968   0.15350  -0.0131  1.0000  0.1195  -1.6700   0.0000   0.2132
 -12.500  -0.4805   0.14712   0.14082  -0.0082  1.0000  0.1318  -1.4668   0.0000   0.2202
 -12.000  -0.5232   0.14552   0.13943  -0.0178  1.0000  0.1375  -1.7212   0.0000   0.2047
 -11.500  -0.4654   0.13297   0.12675  -0.0124  1.0000  0.1455  -1.5124   0.0000   0.2115
 -11.000  -0.4944   0.12923   0.12315  -0.0196  1.0000  0.1559  -1.6808   0.0000   0.1998
 -10.500  -0.4624   0.11885   0.11276  -0.0177  1.0000  0.1611  -1.5878   0.0000   0.2009
 -10.000  -0.4569   0.11270   0.10665  -0.0195  1.0000  0.1730  -1.5919   0.0000   0.1972
  -9.500  -0.4631   0.10470   0.09876  -0.0225  1.0000  0.1801  -1.6511   0.0000   0.1919
  -9.000  -0.4488   0.09828   0.09238  -0.0225  1.0000  0.1918  -1.6088   0.0000   0.1909
  -8.500  -0.6116   0.06421   0.05825  -0.0480  1.0000  0.1044  -2.8137   0.0000   0.1636
  -8.000  -0.6269   0.05479   0.04843  -0.0454  1.0000  0.1001  -2.9374   0.0000   0.1701
  -7.500  -0.6331   0.04629   0.03929  -0.0415  1.0000  0.0997  -3.0119   0.0000   0.1771
  -7.000  -0.6212   0.04048   0.03287  -0.0377  1.0000  0.1065  -2.9389   0.0000   0.1823
  -6.500  -0.5955   0.03592   0.02783  -0.0343  1.0000  0.1124  -2.8096   0.0000   0.1856
  -6.000  -0.5644   0.03130   0.02219  -0.0311  1.0000  0.1189  -2.7026   0.0000   0.1883
  -5.500  -0.5265   0.02833   0.01910  -0.0289  1.0000  0.1327  -2.5217   0.0000   0.1888
  -5.000  -0.4851   0.02585   0.01638  -0.0269  1.0000  0.1500  -2.3543   0.0000   0.1883
  -4.500  -0.4413   0.02393   0.01420  -0.0253  1.0000  0.1742  -2.1678   0.0000   0.1867
  -4.000  -0.3961   0.02227   0.01271  -0.0241  1.0000  0.2079  -1.9630   0.0000   0.1833
  -3.500  -0.3517   0.02112   0.01175  -0.0229  1.0000  0.2594  -1.7544   0.0000   0.1791
  -3.000  -0.3076   0.02009   0.01112  -0.0219  1.0000  0.3337  -1.5680   0.0000   0.1733
  -2.500  -0.2638   0.01919   0.01082  -0.0209  1.0000  0.4475  -1.3921   0.0000   0.1653
  -2.000  -0.2241   0.01853   0.01124  -0.0183  1.0000  0.6391  -1.2219   0.0000   0.1629
  -1.500  -0.1161   0.01887   0.01231  -0.0251  0.9840  0.9863  -0.9485   0.0000   0.0261
  -1.000  -0.0080   0.01946   0.01230  -0.0378  0.9612  1.0000  -0.7223   0.0000  -4.5574
  -0.500   0.0820   0.01986   0.01236  -0.0458  0.9336  1.0000  -0.5536   0.0000   0.8119
   0.000   0.1751   0.02009   0.01237  -0.0537  0.9080  1.0000  -0.5076   0.0000   0.5561
   0.500   0.2691   0.02005   0.01219  -0.0610  0.8831  1.0000  -0.5753   0.0000   0.4751
   1.000   0.3516   0.01981   0.01186  -0.0654  0.8570  1.0000  -0.6439   0.0000   0.4338
   1.500   0.4234   0.01953   0.01152  -0.0673  0.8297  1.0000  -0.7136   0.0000   0.4063
   2.000   0.4867   0.01931   0.01129  -0.0673  0.8014  1.0000  -0.7889   0.0000   0.3852
   2.500   0.5445   0.01919   0.01111  -0.0662  0.7722  1.0000  -0.8760   0.0000   0.3681
   3.000   0.5993   0.01920   0.01105  -0.0646  0.7422  1.0000  -0.9839   0.0000   0.3538
   3.500   0.6482   0.01949   0.01132  -0.0622  0.7098  1.0000  -1.1100   0.0000   0.3415
   4.000   0.6959   0.01988   0.01176  -0.0597  0.6758  1.0000  -1.2563   0.0000   0.3309
   4.500   0.7446   0.02023   0.01211  -0.0572  0.6407  1.0000  -1.4220   0.0000   0.3216
   5.000   0.7950   0.02049   0.01232  -0.0548  0.6038  1.0000  -1.6242   0.0000   0.3132
   5.500   0.8462   0.02077   0.01245  -0.0524  0.5651  1.0000  -1.8369   0.0000   0.3057
   6.000   0.8894   0.02121   0.01302  -0.0492  0.5193  1.0000  -2.0653   0.0000   0.2985
   6.500   0.9340   0.02160   0.01331  -0.0461  0.4708  1.0000  -2.3136   0.0000   0.2919
   7.000   0.9740   0.02208   0.01368  -0.0423  0.4147  1.0000  -2.5561   0.0000   0.2855
   7.500   1.0072   0.02280   0.01423  -0.0378  0.3474  1.0000  -2.7833   0.0000   0.2789
   8.000   1.0330   0.02444   0.01551  -0.0327  0.2705  1.0000  -3.0106   0.0000   0.2723
   8.500   1.0562   0.02702   0.01765  -0.0278  0.2044  1.0000  -3.2284   0.0000   0.2663
   9.000   1.0858   0.03006   0.02041  -0.0241  0.1623  1.0000  -3.4524   0.0000   0.2616
   9.500   1.1212   0.03350   0.02367  -0.0215  0.1346  1.0000  -3.6892   0.0000   0.2580
  10.000   1.1620   0.03752   0.02783  -0.0197  0.1169  1.0000  -3.9183   0.0000   0.2551
  10.500   1.1964   0.04150   0.03186  -0.0176  0.1020  1.0000  -4.1481   0.0000   0.2522
  11.000   1.2183   0.04589   0.03692  -0.0136  0.0941  1.0000  -4.2857   0.0000   0.2480
  11.500   1.2469   0.05184   0.04306  -0.0116  0.0879  1.0000  -4.4542   0.0000   0.2455
  12.000   1.2368   0.05878   0.05076  -0.0058  0.0859  1.0000  -4.4916   0.0000   0.2403
  12.500   1.2013   0.06530   0.05793   0.0010  0.0851  1.0000  -4.4442   0.0000   0.2341
  13.000   1.1525   0.07378   0.06696   0.0043  0.0850  1.0000  -4.3275   0.0000   0.2304
  13.500   1.0944   0.08558   0.07919   0.0026  0.0858  1.0000  -4.1342   0.0000   0.2309
  14.000   1.0354   0.10136   0.09525  -0.0037  0.0871  1.0000  -3.8765   0.0000   0.2360
  14.500   0.8333   0.17891   0.17294  -0.0482  0.1763  1.0000  -1.9182   0.0000   0.2925
  15.000   0.7908   0.18364   0.17754  -0.0581  0.1654  1.0000  -1.6898   0.0000   0.3073
  15.500   0.8525   0.19677   0.19082  -0.0523  0.1565  1.0000  -1.9526   0.0000   0.2947
  16.000   0.8079   0.19917   0.19308  -0.0640  0.1485  1.0000  -1.6787   0.0000   0.3118
  16.500   0.8619   0.21255   0.20658  -0.0588  0.1374  1.0000  -1.9560   0.0000   0.3002
  17.000   0.8298   0.21392   0.20782  -0.0703  0.1296  1.0000  -1.7117   0.0000   0.3157
  17.500   0.8523   0.22171   0.21567  -0.0710  0.1221  1.0000  -1.8047   0.0000   0.3136
  18.000   0.8717   0.23350   0.22751  -0.0727  0.1188  1.0000  -1.8521   0.0000   0.3130
  18.500   0.8666   0.23621   0.23018  -0.0810  0.1107  1.0000  -1.7296   0.0000   0.3222
  19.000   0.8879   0.24416   0.23818  -0.0822  0.1050  1.0000  -1.8124   0.0000   0.3204
  19.500   0.9120   0.25842   0.25247  -0.0827  0.1024  1.0000  -1.8833   0.0000   0.3178
  20.000   0.9080   0.25757   0.25156  -0.0928  0.0954  1.0000  -1.7189   0.0000   0.3283


