xflr5 v6.32

 Calculated polar for: NACA 2412

 1 1 Reynolds number fixed          Mach number fixed         

 xtrf =   1.000 (top)        1.000 (bottom)
 Mach =   0.000     Re =     0.060 e 6     Ncrit =   9.000

  alpha     CL        CD       CDp       Cm    Top Xtr Bot Xtr   Cpmin    Chinge    XCp    
 ------- -------- --------- --------- -------- ------- ------- -------- --------- ---------
 -20.000  -0.6720   0.24863   0.24122   0.0375  1.0000  0.0796  -1.4229   0.0000   0.2851
 -19.500  -0.6592   0.24465   0.23724   0.0324  1.0000  0.0855  -1.4734   0.0000   0.2793
 -19.000  -0.6489   0.23925   0.23190   0.0276  1.0000  0.0883  -1.5352   0.0000   0.2734
 -18.500  -0.6258   0.22919   0.22180   0.0266  1.0000  0.0935  -1.4610   0.0000   0.2738
 -18.000  -0.6115   0.22339   0.21600   0.0229  1.0000  0.0993  -1.4733   0.0000   0.2693
 -17.500  -0.6169   0.22603   0.21871   0.0158  1.0000  0.1025  -1.6052   0.0000   0.2587
 -17.000  -0.5871   0.21064   0.20325   0.0153  1.0000  0.1054  -1.5098   0.0000   0.2592
 -16.500  -0.5673   0.20289   0.19549   0.0137  1.0000  0.1108  -1.4500   0.0000   0.2575
 -16.000  -0.5597   0.19854   0.19116   0.0095  1.0000  0.1176  -1.4753   0.0000   0.2511
 -15.500  -0.5848   0.20266   0.19540   0.0022  1.0000  0.1196  -1.6526   0.0000   0.2394
 -15.000  -0.5295   0.18315   0.17581   0.0049  1.0000  0.1262  -1.4172   0.0000   0.2443
 -14.500  -0.5223   0.17806   0.17074   0.0017  1.0000  0.1349  -1.4236   0.0000   0.2387
 -14.000  -0.5351   0.17495   0.16775  -0.0034  1.0000  0.1385  -1.5263   0.0000   0.2301
 -13.500  -0.5007   0.16480   0.15754  -0.0027  1.0000  0.1534  -1.3920   0.0000   0.2311
 -13.000  -0.4967   0.15783   0.15064  -0.0054  1.0000  0.1598  -1.4411   0.0000   0.2262
 -12.500  -0.4769   0.15043   0.14318  -0.0061  1.0000  0.1703  -1.4147   0.0000   0.2245
 -12.000  -0.5163   0.14999   0.14294  -0.0130  1.0000  0.1769  -1.6035   0.0000   0.2136
 -11.500  -0.4590   0.13660   0.12943  -0.0096  1.0000  0.1877  -1.4400   0.0000   0.2172
 -11.000  -0.5083   0.13675   0.12979  -0.0169  1.0000  0.1975  -1.6426   0.0000   0.2067
 -10.500  -0.4449   0.12313   0.11606  -0.0127  1.0000  0.2096  -1.4580   0.0000   0.2106
 -10.000  -0.4713   0.11830   0.11142  -0.0172  1.0000  0.2212  -1.5747   0.0000   0.2039
  -9.500  -0.4674   0.11322   0.10640  -0.0177  1.0000  0.2412  -1.5643   0.0000   0.2032
  -9.000  -0.4509   0.10608   0.09931  -0.0165  1.0000  0.2641  -1.5110   0.0000   0.2046
  -8.500  -0.4239   0.09710   0.09034  -0.0155  1.0000  0.2754  -1.4416   0.0000   0.2049
  -7.000  -0.6006   0.04945   0.04164  -0.0385  1.0000  0.1363  -2.6634   0.0000   0.1793
  -6.500  -0.5873   0.04206   0.03333  -0.0352  1.0000  0.1374  -2.6627   0.0000   0.1835
  -6.000  -0.5575   0.03720   0.02838  -0.0325  1.0000  0.1464  -2.4977   0.0000   0.1854
  -5.500  -0.5251   0.03326   0.02388  -0.0299  1.0000  0.1624  -2.3883   0.0000   0.1869
  -5.000  -0.4848   0.02959   0.01959  -0.0278  1.0000  0.1784  -2.2748   0.0000   0.1867
  -4.500  -0.4439   0.02740   0.01737  -0.0259  1.0000  0.2072  -2.0903   0.0000   0.1860
  -4.000  -0.3995   0.02527   0.01509  -0.0243  1.0000  0.2451  -1.9139   0.0000   0.1836
  -3.500  -0.3547   0.02361   0.01370  -0.0229  1.0000  0.3002  -1.7159   0.0000   0.1800
  -3.000  -0.3100   0.02219   0.01268  -0.0215  1.0000  0.3849  -1.5416   0.0000   0.1753
  -2.500  -0.2676   0.02099   0.01216  -0.0193  1.0000  0.5152  -1.3751   0.0000   0.1723
  -2.000  -0.2359   0.02008   0.01244  -0.0133  1.0000  0.7300  -1.2230   0.0000   0.1883
  -1.500  -0.1611   0.02030   0.01278  -0.0163  1.0000  1.0000  -1.0120   0.0000   0.1426
  -1.000  -0.1344   0.02090   0.01288  -0.0153  1.0000  1.0000  -0.9028   0.0000   0.1307
  -0.500  -0.0469   0.02235   0.01381  -0.0246  0.9817  1.0000  -0.7126   0.0000  -0.2836
   0.000   0.0509   0.02367   0.01478  -0.0349  0.9517  1.0000  -0.5395   0.0000   0.9384
   0.500   0.1525   0.02478   0.01567  -0.0450  0.9239  1.0000  -0.4976   0.0000   0.5439
   1.000   0.2249   0.02562   0.01638  -0.0494  0.8908  1.0000  -0.5516   0.0000   0.4673
   1.500   0.3060   0.02627   0.01696  -0.0546  0.8605  1.0000  -0.6179   0.0000   0.4255
   2.000   0.3898   0.02664   0.01732  -0.0595  0.8319  1.0000  -0.6971   0.0000   0.3994
   2.500   0.4648   0.02683   0.01758  -0.0621  0.8036  1.0000  -0.7841   0.0000   0.3800
   3.000   0.5333   0.02692   0.01773  -0.0631  0.7749  1.0000  -0.8868   0.0000   0.3643
   3.500   0.5979   0.02692   0.01781  -0.0629  0.7456  1.0000  -1.0150   0.0000   0.3508
   4.000   0.6604   0.02681   0.01777  -0.0619  0.7154  1.0000  -1.1688   0.0000   0.3390
   4.500   0.7221   0.02659   0.01768  -0.0603  0.6838  1.0000  -1.3531   0.0000   0.3283
   5.000   0.7649   0.02729   0.01852  -0.0569  0.6453  1.0000  -1.5232   0.0000   0.3188
   5.500   0.8190   0.02719   0.01848  -0.0541  0.6054  1.0000  -1.7366   0.0000   0.3099
   6.000   0.8762   0.02684   0.01817  -0.0512  0.5626  1.0000  -1.9845   0.0000   0.3018
   6.500   0.9247   0.02676   0.01805  -0.0475  0.5114  1.0000  -2.2403   0.0000   0.2942
   7.000   0.9696   0.02685   0.01800  -0.0434  0.4532  1.0000  -2.4939   0.0000   0.2870
   7.500   1.0043   0.02741   0.01845  -0.0384  0.3848  1.0000  -2.7198   0.0000   0.2798
   8.000   1.0338   0.02858   0.01927  -0.0330  0.3083  1.0000  -2.9455   0.0000   0.2727
   8.500   1.0617   0.03112   0.02123  -0.0282  0.2405  1.0000  -3.1706   0.0000   0.2667
   9.000   1.0926   0.03452   0.02444  -0.0245  0.1935  1.0000  -3.3826   0.0000   0.2620
   9.500   1.1254   0.03810   0.02801  -0.0214  0.1618  1.0000  -3.5950   0.0000   0.2579
  10.000   1.1611   0.04259   0.03265  -0.0190  0.1415  1.0000  -3.7941   0.0000   0.2546
  10.500   1.1849   0.04840   0.03909  -0.0155  0.1295  1.0000  -3.9167   0.0000   0.2508
  11.000   1.2040   0.05360   0.04449  -0.0123  0.1174  1.0000  -4.0709   0.0000   0.2473
  11.500   1.1870   0.06020   0.05192  -0.0061  0.1130  1.0000  -4.0512   0.0000   0.2416
  12.000   1.1471   0.06777   0.06009   0.0000  0.1119  1.0000  -3.9610   0.0000   0.2358
  12.500   1.0792   0.07878   0.07163   0.0014  0.1135  1.0000  -3.7540   0.0000   0.2337
  13.000   0.9932   0.09668   0.08983  -0.0061  0.1173  1.0000  -3.4102   0.0000   0.2404
  14.000   0.7641   0.17336   0.16621  -0.0566  0.2357  1.0000  -1.6396   0.0000   0.3094
  14.500   0.8187   0.18658   0.17964  -0.0540  0.2192  1.0000  -1.7891   0.0000   0.3009
  15.000   0.7802   0.18768   0.18061  -0.0609  0.2074  1.0000  -1.6177   0.0000   0.3122
  16.000   0.8001   0.20295   0.19590  -0.0664  0.1891  1.0000  -1.5924   0.0000   0.3157
  16.500   0.8311   0.21304   0.20609  -0.0661  0.1784  1.0000  -1.7142   0.0000   0.3116
  17.000   0.8239   0.21748   0.21045  -0.0722  0.1683  1.0000  -1.6336   0.0000   0.3189
  17.500   0.8741   0.23562   0.22872  -0.0688  0.1564  1.0000  -1.8446   0.0000   0.3095
  18.000   0.8497   0.23182   0.22479  -0.0785  0.1487  1.0000  -1.6640   0.0000   0.3221
  18.500   0.8713   0.24025   0.23334  -0.0797  0.1402  1.0000  -1.7358   0.0000   0.3205
  19.000   0.8885   0.25147   0.24456  -0.0822  0.1365  1.0000  -1.7593   0.0000   0.3207
  19.500   0.8910   0.25307   0.24613  -0.0893  0.1279  1.0000  -1.6827   0.0000   0.3274
  20.000   0.9138   0.26267   0.25581  -0.0902  0.1215  1.0000  -1.7560   0.0000   0.3251


